sim-outorder: SimpleScalar/Alpha Tool Set version 3.0 of August, 2003.
Copyright (c) 1994-2003 by Todd M. Austin, Ph.D. and SimpleScalar, LLC.
All Rights Reserved. This version of SimpleScalar is licensed for academic
non-commercial use.  No portion of this work may be used by any commercial
entity, or for any commercial purpose, without the prior written permission
of SimpleScalar, LLC (info@simplescalar.com).


Processor Parameters:
Issue Width: 4
Window Size: 16
Number of Virtual Registers: 32
Number of Physical Registers: 16
Datapath Width: 64
Total Power Consumption: 73.7882
Branch Predictor Power Consumption: 4.52313  (6.3%)
 branch target buffer power (W): 4.16837
 local predict power (W): 0.0879711
 global predict power (W): 0.0996078
 chooser power (W): 0.0702439
 RAS power (W): 0.0969383
Rename Logic Power Consumption: 0.417965  (0.582%)
 Instruction Decode Power (W): 0.0159915
 RAT decode_power (W): 0.113514
 RAT wordline_power (W): 0.0307815
 RAT bitline_power (W): 0.246771
 DCL Comparators (W): 0.0109075
Instruction Window Power Consumption: 2.20432  (3.07%)
 tagdrive (W): 0.0943488
 tagmatch (W): 0.033695
 Selection Logic (W): 0.0134217
 decode_power (W): 0.0532503
 wordline_power (W): 0.0844643
 bitline_power (W): 1.92514
Load/Store Queue Power Consumption: 0.96318  (1.34%)
 tagdrive (W): 0.457232
 tagmatch (W): 0.100774
 decode_power (W): 0.00799577
 wordline_power (W): 0.0150119
 bitline_power (W): 0.382166
Arch. Register File Power Consumption: 3.57247  (4.98%)
 decode_power (W): 0.113514
 wordline_power (W): 0.0844643
 bitline_power (W): 3.37449
Result Bus Power Consumption: 2.29754  (3.2%)
Total Clock Power: 26.0975  (36.4%)
Int ALU Power: 4.66013  (6.49%)
FP ALU Power: 14.281  (19.9%)
Instruction Cache Power Consumption: 2.21363  (3.08%)
 decode_power (W): 0.779481
 wordline_power (W): 0.028656
 bitline_power (W): 0.886372
 senseamp_power (W): 0.096
 tagarray_power (W): 0.423116
Itlb_power (W): 0.263317 (0.367%)
Data Cache Power Consumption: 5.18303  (7.22%)
 decode_power (W): 0.651055
 wordline_power (W): 0.196735
 bitline_power (W): 2.71235
 senseamp_power (W): 0.768
 tagarray_power (W): 0.854886
Dtlb_power (W): 0.901877 (1.26%)
Level 2 Cache Power Consumption: 4.2091 (5.86%)
 decode_power (W): 0.41817
 wordline_power (W): 0.0430878
 bitline_power (W): 3.0244
 senseamp_power (W): 0.192
 tagarray_power (W): 0.531433
warning: section `.comment' ignored...
sim: command line: ./sim-outorder -DVFSInterval 100000 -DVFSTargetPower 7425842 ../benchmarks/anagram.alpha ../benchmarks/words 2 

sim: simulation started @ Mon May 23 21:21:52 2016, options follow:

sim-outorder: This simulator implements a very detailed out-of-order issue
superscalar processor with a two-level memory system and speculative
execution support.  This simulator is a performance simulator, tracking the
latency of all pipeline operations.

# -config                     # load configuration from a file
# -dumpconfig                 # dump configuration to a file
# -h                    false # print help message    
# -v                    false # verbose operation     
# -d                    false # enable debug message  
# -i                    false # start in Dlite debugger
-seed                       1 # random number generator seed (0 for timer seed)
# -q                    false # initialize and terminate immediately
# -chkpt               <null> # restore EIO trace execution from <fname>
# -redir:sim           <null> # redirect simulator output to file (non-interactive only)
# -redir:prog          <null> # redirect simulated program output to file
-nice                       0 # simulator scheduling priority
-max:inst                   0 # maximum number of inst's to execute
-DVFSInterval          100000 # Number of cycles for power monitoring interval
-DVFSTargetPower   7425842.00 # Target power budget controlled at each interval
-DVFSIncrement            0.1 # Increment for scaling of Voltage and Frequency
-DVFSTurnOff            false # Do not execute the DVFS controller
-fastfwd                    0 # number of insts skipped before timing starts
# -ptrace              <null> # generate pipetrace, i.e., <fname|stdout|stderr> <range>
-fetch:ifqsize              4 # instruction fetch queue size (in insts)
-fetch:mplat                3 # extra branch mis-prediction latency
-fetch:speed                1 # speed of front-end of machine relative to execution core
-bpred                  bimod # branch predictor type {nottaken|taken|perfect|bimod|2lev|comb}
-bpred:bimod     2048 # bimodal predictor config (<table size>)
-bpred:2lev      1 1024 8 0 # 2-level predictor config (<l1size> <l2size> <hist_size> <xor>)
-bpred:comb      1024 # combining predictor config (<meta_table_size>)
-bpred:ras                  8 # return address stack size (0 for no return stack)
-bpred:btb       512 4 # BTB config (<num_sets> <associativity>)
# -bpred:spec_update       <null> # speculative predictors update in {ID|WB} (default non-spec)
-decode:width               4 # instruction decode B/W (insts/cycle)
-issue:width                4 # instruction issue B/W (insts/cycle)
-issue:inorder          false # run pipeline with in-order issue
-issue:wrongpath         true # issue instructions down wrong execution paths
-commit:width               4 # instruction commit B/W (insts/cycle)
-ruu:size                  16 # register update unit (RUU) size
-lsq:size                   8 # load/store queue (LSQ) size
-cache:dl1       dl1:128:32:4:l # l1 data cache config, i.e., {<config>|none}
-cache:dl1lat               1 # l1 data cache hit latency (in cycles)
-cache:dl2       ul2:1024:64:4:l # l2 data cache config, i.e., {<config>|none}
-cache:dl2lat               6 # l2 data cache hit latency (in cycles)
-cache:il1       il1:512:32:1:l # l1 inst cache config, i.e., {<config>|dl1|dl2|none}
-cache:il1lat               1 # l1 instruction cache hit latency (in cycles)
-cache:il2                dl2 # l2 instruction cache config, i.e., {<config>|dl2|none}
-cache:il2lat               6 # l2 instruction cache hit latency (in cycles)
-cache:flush            false # flush caches on system calls
-cache:icompress        false # convert 64-bit inst addresses to 32-bit inst equivalents
-mem:lat         18 2 # memory access latency (<first_chunk> <inter_chunk>)
-mem:width                  8 # memory access bus width (in bytes)
-tlb:itlb        itlb:16:4096:4:l # instruction TLB config, i.e., {<config>|none}
-tlb:dtlb        dtlb:32:4096:4:l # data TLB config, i.e., {<config>|none}
-tlb:lat                   30 # inst/data TLB miss latency (in cycles)
-res:ialu                   4 # total number of integer ALU's available
-res:imult                  1 # total number of integer multiplier/dividers available
-res:memport                2 # total number of memory system ports available (to CPU)
-res:fpalu                  4 # total number of floating point ALU's available
-res:fpmult                 1 # total number of floating point multiplier/dividers available
# -pcstat              <null> # profile stat(s) against text addr's (mult uses ok)
-bugcompat              false # operate in backward-compatible bugs mode (for testing only)

  Pipetrace range arguments are formatted as follows:

    {{@|#}<start>}:{{@|#|+}<end>}

  Both ends of the range are optional, if neither are specified, the entire
  execution is traced.  Ranges that start with a `@' designate an address
  range to be traced, those that start with an `#' designate a cycle count
  range.  All other range values represent an instruction count range.  The
  second argument, if specified with a `+', indicates a value relative
  to the first argument, e.g., 1000:+100 == 1000:1100.  Program symbols may
  be used in all contexts.

    Examples:   -ptrace FOO.trc #0:#1000
                -ptrace BAR.trc @2000:
                -ptrace BLAH.trc :1500
                -ptrace UXXE.trc :
                -ptrace FOOBAR.trc @main:+278

  Branch predictor configuration examples for 2-level predictor:
    Configurations:   N, M, W, X
      N   # entries in first level (# of shift register(s))
      W   width of shift register(s)
      M   # entries in 2nd level (# of counters, or other FSM)
      X   (yes-1/no-0) xor history and address for 2nd level index
    Sample predictors:
      GAg     : 1, W, 2^W, 0
      GAp     : 1, W, M (M > 2^W), 0
      PAg     : N, W, 2^W, 0
      PAp     : N, W, M (M == 2^(N+W)), 0
      gshare  : 1, W, 2^W, 1
  Predictor `comb' combines a bimodal and a 2-level predictor.

  The cache config parameter <config> has the following format:

    <name>:<nsets>:<bsize>:<assoc>:<repl>

    <name>   - name of the cache being defined
    <nsets>  - number of sets in the cache
    <bsize>  - block size of the cache
    <assoc>  - associativity of the cache
    <repl>   - block replacement strategy, 'l'-LRU, 'f'-FIFO, 'r'-random

    Examples:   -cache:dl1 dl1:4096:32:1:l
                -dtlb dtlb:128:4096:32:r

  Cache levels can be unified by pointing a level of the instruction cache
  hierarchy at the data cache hiearchy using the "dl1" and "dl2" cache
  configuration arguments.  Most sensible combinations are supported, e.g.,

    A unified l2 cache (il2 is pointed at dl2):
      -cache:il1 il1:128:64:1:l -cache:il2 dl2
      -cache:dl1 dl1:256:32:1:l -cache:dl2 ul2:1024:64:2:l

    Or, a fully unified cache hierarchy (il1 pointed at dl1):
      -cache:il1 dl1
      -cache:dl1 ul1:256:32:1:l -cache:dl2 ul2:1024:64:2:l



sim: ** starting performance simulation **
main dictionary has 24475 entries
3048 bytes wasted
warning: partially supported sigprocmask() call...
169 candidates
Order of search will be uoiadsntjklmfephqzrcgbvwxy
USN Dido tat 
USN Dido AT&T 
USN ditto ad 
USN do I'd tat 
USN do I'd AT&T 
USN do it tad 
USN do it'd at 
USN do IT&T ad 
USN do ITT ad 
USN do ti tad 
USN do tid at 
USN do tit ad 
USN DOD it at 
USN DOD ti at 
USN dot I'd at 
USN dot it ad 
USN dot ti ad 
USN odd ti at 
USN odd it at 
USN Ott I'd ad 
USN tot I'd ad 
USN to tid ad 
USN to ti add 
USN to ti dad 
USN to it'd ad 
USN to did at 
USN to it add 
USN to it dad 
USN to I'd tad 
USN toad tid 
USN toad it'd 
Titus ado ND 
Titus ado 2nd 
Titus do DNA 
Titus do Dan 
Titus do and 
Titus DOD an 
Titus don ad 
Titus no add 
Titus no dad 
Titus nod ad 
Titus odd an 
Titus on add 
Titus on dad 
taut Dido n's 
taut do in SD 
taut do in d's 
taut do i's ND 
taut do i's 2nd 
taut do is ND 
taut do is 2nd 
taut do I'd n's 
taut DOD sin 
taut don Dis 
taut Io 2nd SD 
taut Io 2nd d's 
taut Io ND SD 
taut Io ND d's 
taut no I'd SD 
taut no I'd d's 
taut nod Dis 
taut odd sin 
taut Odin d's 
taut Odin SD 
taut on I'd d's 
taut on I'd SD 
taut o's I'd 2nd 
taut o's I'd ND 
taut so I'd 2nd 
taut so I'd ND 
taut sod din 
taut son did 
USIA DOD TNT 
USIA odd TNT 
taunt do Dis 
taunt DOD is 
taunt DOD i's 
taunt odd is 
taunt odd i's 
taunt o's did 
taunt so did 
taunt sod I'd 
tau do tid n's 
tau do nit d's 
tau do nit SD 
tau do sit ND 
tau do sit 2nd 
tau do tin d's 
tau do tin SD 
tau do it'd n's 
tau do din t's 
tau do din 1st 
tau do din St 
tau do din St. 
tau DOD isn't 
tau DOD NTIS 
tau DOD ti n's 
tau DOD it n's 
tau DOD in t's 
tau DOD in 1st 
tau DOD in St 
tau DOD in St. 
tau don ti SD 
tau don ti d's 
tau don it SD 
tau don it d's 
tau don I'd St. 
tau don I'd St 
tau don I'd 1st 
tau don I'd t's 
tau don't Dis 
tau dot I'd n's 
tau dot in SD 
tau dot in d's 
tau dot is 2nd 
tau dot is ND 
tau dot i's 2nd 
tau dot i's ND 
tau Ito d's 2nd 
tau Ito d's ND 
tau Ito SD 2nd 
tau Ito SD ND 
tau no did 1st 
tau no did t's 
tau no did St. 
tau no did St 
tau no it'd d's 
tau no it'd SD 
tau no tid SD 
tau no tid d's 
tau nod ti d's 
tau nod ti SD 
tau nod it d's 
tau nod it SD 
tau nod I'd St 
tau nod I'd St. 
tau nod I'd t's 
tau nod I'd 1st 
tau not I'd d's 
tau not I'd SD 
tau to did n's 
tau to din SD 
tau to din d's 
tau to Dis 2nd 
tau to Dis ND 
tau odd ti n's 
tau odd it n's 
tau odd in St 
tau odd in 1st 
tau odd in St. 
tau odd in t's 
tau odd NTIS 
tau odd isn't 
tau on did St. 
tau on did 1st 
tau on did St 
tau on did t's 
tau on it'd d's 
tau on it'd SD 
tau on tid d's 
tau on tid SD 
tau o's didn't 
tau o's it'd 2nd 
tau o's it'd ND 
tau o's tid 2nd 
tau o's tid ND 
tau so didn't 
tau so it'd ND 
tau so it'd 2nd 
tau so tid ND 
tau so tid 2nd 
tau sod ti 2nd 
tau sod ti ND 
tau sod it 2nd 
tau sod it ND 
tau sod dint 
tau ton I'd d's 
tau ton I'd SD 
tau Todd sin 
Sutton I'd ad 
sun Dido tat 
sun Dido AT&T 
sun ditto ad 
sun do ITT ad 
sun do tit ad 
sun do ti tad 
sun do it'd at 
sun do it tad 
sun do I'd tat 
sun do I'd AT&T 
sun do tid at 
sun do IT&T ad 
sun DOD ti at 
sun DOD it at 
sun dot ti ad 
sun dot it ad 
sun dot I'd at 
sun toad it'd 
sun toad tid 
sun to did at 
sun to ti add 
sun to ti dad 
sun to it'd ad 
sun to it add 
sun to it dad 
sun to I'd tad 
sun to tid ad 
sun odd ti at 
sun odd it at 
sun Ott I'd ad 
sun tot I'd ad 
USDA do tint 
USDA don tit 
USDA don IT&T 
USDA don ITT 
USDA don't it 
USDA don't ti 
USDA dot tin 
USDA dot nit 
USDA nod tit 
USDA nod IT&T 
USDA nod ITT 
USDA not tid 
USDA not it'd 
USDA to dint 
USDA to it 2nd 
USDA to it ND 
USDA to ti 2nd 
USDA to ti ND 
USDA Ott din 
USDA tot din 
USDA ton tid 
USDA ton it'd 
suit do at ND 
suit do at 2nd 
suit DOD Nat 
suit DOD tan 
suit DOD ant 
suit don tad 
suit don't ad 
suit dot and 
suit dot Dan 
suit dot DNA 
suit toad 2nd 
suit toad ND 
suit nod tad 
suit not add 
suit not dad 
suit to ad ND 
suit to ad 2nd 
suit odd tan 
suit odd Nat 
suit odd ant 
suit ton dad 
suit ton add 
suit Todd an 
Ainu Todd St. 
Ainu Todd t's 
Ainu Todd St 
Ainu Todd 1st 
Sudan ditto 
Sudan do ITT 
Sudan do IT&T 
Sudan do tit 
Sudan dot it 
Sudan dot ti 
Sudan to tid 
Sudan to it'd 
Sudan Ott I'd 
Sudan tot I'd 
sud ado tint 
sud ditto an 
sud do tin at 
sud do nit at 
sud do in tat 
sud do in AT&T 
sud do Titan 
sud do taint 
sud do ITT an 
sud do IT&T an 
sud do it tan 
sud do it Nat 
sud do it ant 
sud do tit an 
sud do ti tan 
sud do ti Nat 
sud do ti ant 
sud don it at 
sud don ti at 
sud dot in at 
sud dot ain't 
sud dot anti 
sud dot it an 
sud dot ti an 
sud into tad 
sud Io ad TNT 
sud Io tat ND 
sud Io tat 2nd 
sud Io AT&T ND 
sud Io AT&T 2nd 
sud Ito at 2nd 
sud Ito at ND 
sud NATO tid 
sud NATO it'd 
sud toad nit 
sud toad tin 
sud no tid at 
sud no I'd tat 
sud no I'd AT&T 
sud no ITT ad 
sud no IT&T ad 
sud no it tad 
sud no tit ad 
sud no ti tad 
sud no it'd at 
sud nod it at 
sud nod ti at 
sud not I'd at 
sud not it ad 
sud not ti ad 
sud to din at 
sud to in tad 
sud to tid an 
sud to nit ad 
sud to I'd Nat 
sud to I'd ant 
sud to I'd tan 
sud to tin ad 
sud to it Dan 
sud to it DNA 
sud to it and 
sud to ti Dan 
sud to ti DNA 
sud to ti and 
sud to it'd an 
sud oat dint 
sud oat it ND 
sud oat it 2nd 
sud oat ti ND 
sud oat ti 2nd 
sud Odin tat 
sud Odin AT&T 
sud oint tad 
sud on tid at 
sud on I'd tat 
sud on I'd AT&T 
sud on ITT ad 
sud on IT&T ad 
sud on it tad 
sud on tit ad 
sud on ti tad 
sud on it'd at 
sud Ott in ad 
sud Ott I'd an 
sud tot in ad 
sud tot I'd an 
sud ton I'd at 
sud ton it ad 
sud ton ti ad 
sud tao dint 
sud tao it ND 
sud tao it 2nd 
sud tao ti ND 
sud tao ti 2nd 
sud Toni tad 
stunt ado I'd 
stunt do Ida 
stunt do aid 
stunt Io dad 
stunt Io add 
stun Dido at 
stun ado tid 
stun ado it'd 
stun do it ad 
stun do ti ad 
stun do I'd at 
stun dot Ida 
stun dot aid 
stun Ito dad 
stun Ito add 
stun toad I'd 
stun to I'd ad 
stun oat did 
stun tao did 
studio at 2nd 
studio at ND 
stud ado nit 
stud ado tin 
stud do in at 
stud do ain't 
stud do anti 
stud do ti an 
stud do it an 
stud dot ani 
stud into ad 
stud Io at 2nd 
stud Io at ND 
stud ion tad 
stud iota ND 
stud iota 2nd 
stud Ito DNA 
stud Ito and 
stud Ito Dan 
stud NATO I'd 
stud toad in 
stud no ti ad 
stud no it ad 
stud no I'd at 
stud not Ida 
stud not aid 
stud to in ad 
stud to I'd an 
stud oat din 
stud Odin at 
stud oint ad 
stud on ti ad 
stud on it ad 
stud on I'd at 
stud ton Ida 
stud ton aid 
stud tao din 
stud Toni ad 
anus DOD tit 
anus DOD IT&T 
anus DOD ITT 
anus dot tid 
anus dot it'd 
anus odd tit 
anus odd IT&T 
anus odd ITT 
anus Ott did 
anus Todd ti 
anus Todd it 
anus tot did 
stout in add 
stout in dad 
stout did an 
stout din ad 
stout Ida ND 
stout Ida 2nd 
stout aid ND 
stout aid 2nd 
stout I'd Dan 
stout I'd and 
stout I'd DNA 
sound tit ad 
sound IT&T ad 
sound ITT ad 
sound tid at 
sound it'd at 
sound ti tad 
sound it tad 
sound I'd AT&T 
sound I'd tat 
astound tid 
astound it'd 
USA Dido TNT 
USA ditto 2nd 
USA ditto ND 
USA do tit 2nd 
USA do tit ND 
USA do IT&T 2nd 
USA do IT&T ND 
USA do ITT 2nd 
USA do ITT ND 
USA do I'd TNT 
USA DOD tint 
USA don't tid 
USA don't it'd 
USA dot ti 2nd 
USA dot ti ND 
USA dot it 2nd 
USA dot it ND 
USA dot dint 
USA to tid 2nd 
USA to tid ND 
USA to it'd 2nd 
USA to it'd ND 
USA to didn't 
USA odd tint 
USA Ott I'd 2nd 
USA Ott I'd ND 
USA Todd tin 
USA Todd nit 
USA tot I'd ND 
USA tot I'd 2nd 
us ado I'd TNT 
us ado ITT 2nd 
us ado ITT ND 
us ado IT&T 2nd 
us ado IT&T ND 
us ado tit 2nd 
us ado tit ND 
us ditto Dan 
us ditto DNA 
us ditto and 
us do tit DNA 
us do tit and 
us do tit Dan 
us do IT&T and 
us do IT&T Dan 
us do IT&T DNA 
us do tint ad 
us do tin tad 
us do ITT Dan 
us do ITT DNA 
us do ITT and 
us do aid TNT 
us do din tat 
us do din AT&T 
us do Ida TNT 
us do dint at 
us do nit tad 
us do it'd Nat 
us do it'd tan 
us do it'd ant 
us do ti at 2nd 
us do ti at ND 
us do it at ND 
us do it at 2nd 
us do tid ant 
us do tid tan 
us do tid Nat 
us DOD in tat 
us DOD in AT&T 
us DOD Titan 
us DOD taint 
us DOD tit an 
us DOD IT&T an 
us DOD tin at 
us DOD ITT an 
us DOD nit at 
us DOD ti ant 
us DOD ti tan 
us DOD ti Nat 
us DOD it ant 
us DOD it tan 
us DOD it Nat 
us don tit ad 
us don IT&T ad 
us don ITT ad 
us don I'd AT&T 
us don I'd tat 
us don it'd at 
us don ti tad 
us don it tad 
us don tid at 
us don't I'd at 
us don't ti ad 
us don't it ad 
us dot in tad 
us dot tin ad 
us dot I'd Nat 
us dot I'd ant 
us dot I'd tan 
us dot din at 
us dot nit ad 
us dot it'd an 
us dot ti Dan 
us dot ti DNA 
us dot ti and 
us dot it Dan 
us dot it DNA 
us dot it and 
us dot tid an 
us Io add TNT 
us Io dad TNT 
us Ito tad ND 
us Ito tad 2nd 
us toad dint 
us toad ti 2nd 
us toad ti ND 
us toad it 2nd 
us toad it ND 
us no did AT&T 
us no did tat 
us no tit add 
us no tit dad 
us no IT&T add 
us no IT&T dad 
us no ITT add 
us no ITT dad 
us no it'd tad 
us no tid tad 
us nod tit ad 
us nod IT&T ad 
us nod ITT ad 
us nod I'd tat 
us nod I'd AT&T 
us nod it'd at 
us nod ti tad 
us nod it tad 
us nod tid at 
us not did at 
us not I'd tad 
us not it'd ad 
us not ti dad 
us not ti add 
us not it dad 
us not it add 
us not tid ad 
us to did Nat 
us to did ant 
us to did tan 
us to tin add 
us to tin dad 
us to I'd at ND 
us to I'd at 2nd 
us to din tad 
us to dint ad 
us to nit add 
us to nit dad 
us to it'd Dan 
us to it'd DNA 
us to it'd and 
us to ti ad ND 
us to ti ad 2nd 
us to it ad 2nd 
us to it ad ND 
us to tid Dan 
us to tid DNA 
us to tid and 
us oat didn't 
us oat it'd 2nd 
us oat it'd ND 
us oat tid 2nd 
us oat tid ND 
us odd Titan 
us odd taint 
us odd tit an 
us odd IT&T an 
us odd tin at 
us odd ITT an 
us odd nit at 
us odd ti Nat 
us odd ti ant 
us odd ti tan 
us odd it Nat 
us odd it ant 
us odd it tan 
us odd in AT&T 
us odd in tat 
us on did AT&T 
us on did tat 
us on tit dad 
us on tit add 
us on IT&T dad 
us on IT&T add 
us on ITT dad 
us on ITT add 
us on it'd tad 
us on tid tad 
us Ott did an 
us Ott I'd Dan 
us Ott I'd DNA 
us Ott I'd and 
us Ott aid ND 
us Ott aid 2nd 
us Ott din ad 
us Ott Ida ND 
us Ott Ida 2nd 
us Ott in add 
us Ott in dad 
us Todd anti 
us Todd ain't 
us Todd ti an 
us Todd it an 
us Todd in at 
us tot did an 
us tot I'd Dan 
us tot I'd DNA 
us tot I'd and 
us tot aid 2nd 
us tot aid ND 
us tot din ad 
us tot Ida 2nd 
us tot Ida ND 
us tot in dad 
us tot in add 
us ton did at 
us ton I'd tad 
us ton it'd ad 
us ton ti add 
us ton ti dad 
us ton it add 
us ton it dad 
us ton tid ad 
us tao didn't 
us tao it'd ND 
us tao it'd 2nd 
us tao tid ND 
us tao tid 2nd 
audio SD TNT 
audio d's TNT 
audit don 1st 
audit don t's 
audit don St. 
audit don St 
audit dot n's 
audit nod St 
audit nod t's 
audit nod 1st 
audit nod St. 
audit not d's 
audit not SD 
audit ton d's 
audit ton SD 
aunt Dido t's 
aunt Dido 1st 
aunt Dido St 
aunt Dido St. 
aunt do I'd t's 
aunt do I'd 1st 
aunt do I'd St 
aunt do I'd St. 
aunt do ti SD 
aunt do ti d's 
aunt do it SD 
aunt do it d's 
aunt DOD sit 
aunt dot Dis 
aunt to I'd SD 
aunt to I'd d's 
aunt odd sit 
aunt sod it'd 
aunt sod tid 
aunt Todd i's 
aunt Todd is 
Austin Todd 
auto dint SD 
auto dint d's 
auto it SD 2nd 
auto it SD ND 
auto it d's 2nd 
auto it d's ND 
auto ti SD 2nd 
auto ti SD ND 
auto ti d's 2nd 
auto ti d's ND 
auto I'd 2nd t's 
auto I'd 2nd 1st 
auto I'd 2nd St. 
auto I'd 2nd St 
auto I'd ND t's 
auto I'd ND 1st 
auto I'd ND St. 
auto I'd ND St 
u's ado tit 2nd 
u's ado tit ND 
u's ado IT&T 2nd 
u's ado IT&T ND 
u's ado ITT 2nd 
u's ado ITT ND 
u's ado I'd TNT 
u's ditto DNA 
u's ditto and 
u's ditto Dan 
u's do tit Dan 
u's do tit and 
u's do tit DNA 
u's do IT&T Dan 
u's do IT&T and 
u's do IT&T DNA 
u's do tint ad 
u's do tin tad 
u's do ITT Dan 
u's do ITT and 
u's do ITT DNA 
u's do aid TNT 
u's do din AT&T 
u's do din tat 
u's do Ida TNT 
u's do dint at 
u's do nit tad 
u's do it'd Nat 
u's do it'd tan 
u's do it'd ant 
u's do ti at 2nd 
u's do ti at ND 
u's do it at ND 
u's do it at 2nd 
u's do tid tan 
u's do tid ant 
u's do tid Nat 
u's DOD Titan 
u's DOD taint 
u's DOD tit an 
u's DOD IT&T an 
u's DOD tin at 
u's DOD ITT an 
u's DOD nit at 
u's DOD ti tan 
u's DOD ti ant 
u's DOD ti Nat 
u's DOD it tan 
u's DOD it ant 
u's DOD it Nat 
u's DOD in AT&T 
u's DOD in tat 
u's don tit ad 
u's don IT&T ad 
u's don ITT ad 
u's don I'd AT&T 
u's don I'd tat 
u's don it'd at 
u's don ti tad 
u's don it tad 
u's don tid at 
u's don't I'd at 
u's don't ti ad 
u's don't it ad 
u's dot tin ad 
u's dot I'd tan 
u's dot I'd ant 
u's dot I'd Nat 
u's dot din at 
u's dot nit ad 
u's dot it'd an 
u's dot ti Dan 
u's dot ti and 
u's dot ti DNA 
u's dot it Dan 
u's dot it and 
u's dot it DNA 
u's dot in tad 
u's dot tid an 
u's Io add TNT 
u's Io dad TNT 
u's Ito tad 2nd 
u's Ito tad ND 
u's toad dint 
u's toad ti ND 
u's toad ti 2nd 
u's toad it ND 
u's toad it 2nd 
u's no did tat 
u's no did AT&T 
u's no tit dad 
u's no tit add 
u's no IT&T dad 
u's no IT&T add 
u's no ITT dad 
u's no ITT add 
u's no it'd tad 
u's no tid tad 
u's nod tit ad 
u's nod IT&T ad 
u's nod ITT ad 
u's nod I'd AT&T 
u's nod I'd tat 
u's nod it'd at 
u's nod ti tad 
u's nod it tad 
u's nod tid at 
u's not did at 
u's not I'd tad 
u's not it'd ad 
u's not ti dad 
u's not ti add 
u's not it dad 
u's not it add 
u's not tid ad 
u's to did tan 
u's to did ant 
u's to did Nat 
u's to tin add 
u's to tin dad 
u's to I'd at ND 
u's to I'd at 2nd 
u's to din tad 
u's to dint ad 
u's to nit dad 
u's to nit add 
u's to it'd Dan 
u's to it'd DNA 
u's to it'd and 
u's to ti ad ND 
u's to ti ad 2nd 
u's to it ad 2nd 
u's to it ad ND 
u's to tid Dan 
u's to tid DNA 
u's to tid and 
u's oat didn't 
u's oat it'd 2nd 
u's oat it'd ND 
u's oat tid 2nd 
u's oat tid ND 
u's odd taint 
u's odd tit an 
u's odd IT&T an 
u's odd tin at 
u's odd ITT an 
u's odd nit at 
u's odd ti tan 
u's odd ti ant 
u's odd ti Nat 
u's odd it tan 
u's odd it ant 
u's odd it Nat 
u's odd in AT&T 
u's odd in tat 
u's odd Titan 
u's on did AT&T 
u's on did tat 
u's on tit dad 
u's on tit add 
u's on IT&T dad 
u's on IT&T add 
u's on ITT dad 
u's on ITT add 
u's on it'd tad 
u's on tid tad 
u's Ott did an 
u's Ott I'd Dan 
u's Ott I'd DNA 
u's Ott I'd and 
u's Ott aid ND 
u's Ott aid 2nd 
u's Ott din ad 
u's Ott Ida ND 
u's Ott Ida 2nd 
u's Ott in add 
u's Ott in dad 
u's Todd anti 
u's Todd ain't 
u's Todd ti an 
u's Todd it an 
u's Todd in at 
u's tot did an 
u's tot I'd Dan 
u's tot I'd and 
u's tot I'd DNA 
u's tot aid 2nd 
u's tot aid ND 
u's tot din ad 
u's tot Ida 2nd 
u's tot Ida ND 
u's tot in dad 
u's tot in add 
u's ton did at 
u's ton I'd tad 
u's ton it'd ad 
u's ton ti add 
u's ton ti dad 
u's ton it add 
u's ton it dad 
u's ton tid ad 
u's tao didn't 
u's tao it'd ND 
u's tao it'd 2nd 
u's tao tid ND 
u's tao tid 2nd 
sou tit ad ND 
sou tit ad 2nd 
sou IT&T ad 2nd 
sou IT&T ad ND 
sou tint dad 
sou tint add 
sou ITT ad ND 
sou ITT ad 2nd 
sou I'd tat 2nd 
sou I'd tat ND 
sou I'd AT&T 2nd 
sou I'd AT&T ND 
sou I'd ad TNT 
sou dint tad 
sou it'd at ND 
sou it'd at 2nd 
sou ti tad 2nd 
sou ti tad ND 
sou it tad ND 
sou it tad 2nd 
sou tid at 2nd 
sou tid at ND 
sou didn't at 
snout I'd tad 
snout it'd ad 
snout ti dad 
snout ti add 
snout it dad 
snout it add 
snout tid ad 
snout did at 
Datsun do ti 
Datsun do it 
Datsun to I'd 
daunt do sit 
daunt dot is 
daunt dot i's 
daunt Ito d's 
daunt Ito SD 
daunt to Dis 
daunt o's it'd 
daunt o's tid 
daunt so it'd 
daunt so tid 
daunt sod ti 
daunt sod it 
unit do ad t's 
unit do ad St 
unit do ad 1st 
unit do ad St. 
unit do at d's 
unit do at SD 
unit DOD sat 
unit dot sad 
unit toad d's 
unit toad SD 
unit to ad d's 
unit to ad SD 
unit odd sat 
unit sod tad 
unit Todd as 
unit Todd a's 
unit Todd sa 
situ do at ND 
situ do at 2nd 
situ DOD tan 
situ DOD ant 
situ DOD Nat 
situ don tad 
situ don't ad 
situ dot Dan 
situ dot DNA 
situ dot and 
situ toad ND 
situ toad 2nd 
situ nod tad 
situ not add 
situ not dad 
situ to ad ND 
situ to ad 2nd 
situ odd tan 
situ odd ant 
situ odd Nat 
situ Todd an 
situ ton add 
situ ton dad 
Saudi do TNT 
Saudi Ott ND 
Saudi Ott 2nd 
Saudi tot ND 
Saudi tot 2nd 
Saud do tint 
Saud don tit 
Saud don IT&T 
Saud don ITT 
Saud don't it 
Saud don't ti 
Saud dot tin 
Saud dot nit 
Saud nod tit 
Saud nod IT&T 
Saud nod ITT 
Saud not tid 
Saud not it'd 
Saud to it 2nd 
Saud to it ND 
Saud to ti 2nd 
Saud to ti ND 
Saud to dint 
Saud Ott din 
Saud tot din 
Saud ton tid 
Saud ton it'd 
out it and SD 
out it and d's 
out it Dan SD 
out it Dan d's 
out it DNA SD 
out it DNA d's 
out it add n's 
out it dad n's 
out it sad 2nd 
out it sad ND 
out tid as ND 
out tid as 2nd 
out tid sand 
out tid an d's 
out tid an SD 
out tid ad n's 
out tid a's ND 
out tid a's 2nd 
out tid sa 2nd 
out tid sa ND 
out NTIS add 
out NTIS dad 
out i's tad 2nd 
out i's tad ND 
out sit ad ND 
out sit ad 2nd 
out tin ad SD 
out tin ad d's 
out isn't add 
out isn't dad 
out staid ND 
out staid 2nd 
out ti and SD 
out ti and d's 
out ti Dan SD 
out ti Dan d's 
out ti DNA SD 
out ti DNA d's 
out ti add n's 
out ti dad n's 
out ti sad ND 
out ti sad 2nd 
out din at SD 
out din at d's 
out din ad 1st 
out din ad St. 
out din ad t's 
out din ad St 
out dint sad 
out nit ad SD 
out nit ad d's 
out it'd ad n's 
out it'd a's 2nd 
out it'd a's ND 
out it'd an d's 
out it'd an SD 
out it'd sand 
out it'd sa 2nd 
out it'd sa ND 
out it'd as 2nd 
out it'd as ND 
out in add St. 
out in add St 
out in add 1st 
out in add t's 
out in dad St. 
out in dad St 
out in dad 1st 
out in dad t's 
out in tad d's 
out in tad SD 
out I'd Nat SD 
out I'd Nat d's 
out I'd tad n's 
out I'd and St. 
out I'd and St 
out I'd and 1st 
out I'd and t's 
out I'd sat 2nd 
out I'd sat ND 
out I'd stand 
out I'd Dan t's 
out I'd Dan St 
out I'd Dan St. 
out I'd Dan 1st 
out I'd DNA t's 
out I'd DNA St 
out I'd DNA St. 
out I'd DNA 1st 
out I'd tan SD 
out I'd tan d's 
out I'd ant SD 
out I'd ant d's 
out didn't a's 
out didn't sa 
out didn't as 
out aid ND 1st 
out aid ND St. 
out aid ND St 
out aid ND t's 
out aid 2nd 1st 
out aid 2nd St. 
out aid 2nd St 
out aid 2nd t's 
out did an St. 
out did an St 
out did an t's 
out did an 1st 
out did Stan 
out did at n's 
out Ida ND t's 
out Ida ND 1st 
out Ida ND St 
out Ida ND St. 
out Ida 2nd t's 
out Ida 2nd 1st 
out Ida 2nd St 
out Ida 2nd St. 
out Dis at ND 
out Dis at 2nd 
out is tad ND 
out is tad 2nd 
oust it ad ND 
oust it ad 2nd 
oust tid and 
oust tid Dan 
oust tid DNA 
oust tin add 
oust tin dad 
oust ti ad ND 
oust ti ad 2nd 
oust din tad 
oust dint ad 
oust nit add 
oust nit dad 
oust it'd and 
oust it'd Dan 
oust it'd DNA 
oust I'd at ND 
oust I'd at 2nd 
oust did tan 
oust did ant 
oust did Nat 
onus tid tad 
onus tit add 
onus tit dad 
onus IT&T add 
onus IT&T dad 
onus ITT add 
onus ITT dad 
onus it'd tad 
onus did tat 
onus did AT&T 
nut do it sad 
nut do tid a's 
nut do tid sa 
nut do tid as 
nut do i's tad 
nut do sit ad 
nut do staid 
nut do ti sad 
nut do it'd a's 
nut do it'd sa 
nut do it'd as 
nut do I'd sat 
nut do aid St. 
nut do aid 1st 
nut do aid t's 
nut do aid St 
nut do Ida St. 
nut do Ida 1st 
nut do Ida t's 
nut do Ida St 
nut do Dis at 
nut do is tad 
nut DOD it as 
nut DOD it sa 
nut DOD it a's 
nut DOD i's at 
nut DOD ti as 
nut DOD ti sa 
nut DOD ti a's 
nut DOD is at 
nut dot i's ad 
nut dot said 
nut dot I'd sa 
nut dot I'd a's 
nut dot I'd as 
nut dot is ad 
nut dot dais 
nut Dido sat 
nut Io dad St 
nut Io dad 1st 
nut Io dad St. 
nut Io dad t's 
nut Io add St 
nut Io add 1st 
nut Io add St. 
nut Io add t's 
nut Io tad d's 
nut Io tad SD 
nut Ito ad d's 
nut Ito ad SD 
nut toad Dis 
nut to i's dad 
nut to i's add 
nut to I'd sad 
nut to aid SD 
nut to aid d's 
nut to did as 
nut to did a's 
nut to did sa 
nut to Ida SD 
nut to Ida d's 
nut to Dis ad 
nut to is dad 
nut to is add 
nut to Addis 
nut oat I'd SD 
nut oat I'd d's 
nut odd i's at 
nut odd ti sa 
nut odd ti a's 
nut odd ti as 
nut odd is at 
nut odd it sa 
nut odd it a's 
nut odd it as 
nut o's ti dad 
nut o's ti add 
nut o's it'd ad 
nut o's I'd tad 
nut o's did at 
nut o's tid ad 
nut o's it dad 
nut o's it add 
nut Otis add 
nut Otis dad 
nut so ti add 
nut so ti dad 
nut so it'd ad 
nut so I'd tad 
nut so did at 
nut so tid ad 
nut so it add 
nut so it dad 
nut sod ti ad 
nut sod I'd at 
nut sod it ad 
nut soda it'd 
nut soda tid 
nut tao I'd SD 
nut tao I'd d's 
nut Taos did 
nut ado I'd St 
nut ado I'd t's 
nut ado I'd St. 
nut ado I'd 1st 
nut ado ti SD 
nut ado ti d's 
nut ado it SD 
nut ado it d's 
nu do tit sad 
nu do tid sat 
nu do IT&T sad 
nu do ITT sad 
nu do Dis tat 
nu do Dis AT&T 
nu do I'd at St. 
nu do I'd at St 
nu do I'd at 1st 
nu do I'd at t's 
nu do ti at d's 
nu do ti at SD 
nu do ti ad t's 
nu do ti ad 1st 
nu do ti ad St. 
nu do ti ad St 
nu do it at SD 
nu do it at d's 
nu do it ad t's 
nu do it ad 1st 
nu do it ad St. 
nu do it ad St 
nu do it'd sat 
nu do sit tad 
nu DOD tit sa 
nu DOD tit as 
nu DOD tit a's 
nu DOD IT&T sa 
nu DOD IT&T as 
nu DOD IT&T a's 
nu DOD ITT sa 
nu DOD ITT as 
nu DOD ITT a's 
nu DOD is tat 
nu DOD is AT&T 
nu DOD ti sat 
nu DOD it sat 
nu DOD i's tat 
nu DOD i's AT&T 
nu DOD sit at 
nu dot tid sa 
nu dot tid a's 
nu dot tid as 
nu dot is tad 
nu dot Dis at 
nu dot Ida St 
nu dot Ida 1st 
nu dot Ida t's 
nu dot Ida St. 
nu dot aid St 
nu dot aid 1st 
nu dot aid t's 
nu dot aid St. 
nu dot I'd sat 
nu dot ti sad 
nu dot it sad 
nu dot staid 
nu dot it'd sa 
nu dot it'd a's 
nu dot it'd as 
nu dot i's tad 
nu dot sit ad 
nu Dido at t's 
nu Dido at St. 
nu Dido at St 
nu Dido at 1st 
nu Ito dad 1st 
nu Ito dad t's 
nu Ito dad St. 
nu Ito dad St 
nu Ito add 1st 
nu Ito add t's 
nu Ito add St. 
nu Ito add St 
nu Ito tad d's 
nu Ito tad SD 
nu toad I'd t's 
nu toad I'd St. 
nu toad I'd St 
nu toad I'd 1st 
nu toad ti SD 
nu toad ti d's 
nu toad it SD 
nu toad it d's 
nu ado tid t's 
nu ado tid St. 
nu ado tid St 
nu ado tid 1st 
nu ado IT&T d's 
nu ado IT&T SD 
nu ado ITT d's 
nu ado ITT SD 
nu ado it'd t's 
nu ado it'd St 
nu ado it'd 1st 
nu ado it'd St. 
nu ado tit SD 
nu ado tit d's 
nu to tid sad 
nu to Dis tad 
nu to did sat 
nu to I'd at d's 
nu to I'd at SD 
nu to I'd ad t's 
nu to I'd ad St 
nu to I'd ad 1st 
nu to I'd ad St. 
nu to ti ad SD 
nu to ti ad d's 
nu to it ad d's 
nu to it ad SD 
nu to it'd sad 
nu to sit add 
nu to sit dad 
nu oat tid d's 
nu oat tid SD 
nu oat did St. 
nu oat did t's 
nu oat did St 
nu oat did 1st 
nu oat it'd SD 
nu oat it'd d's 
nu odd IT&T sa 
nu odd IT&T a's 
nu odd IT&T as 
nu odd ITT sa 
nu odd ITT a's 
nu odd ITT as 
nu odd is AT&T 
nu odd is tat 
nu odd ti sat 
nu odd it sat 
nu odd tit sa 
nu odd tit a's 
nu odd tit as 
nu odd i's AT&T 
nu odd i's tat 
nu odd sit at 
nu o's tid tad 
nu o's IT&T dad 
nu o's IT&T add 
nu o's ITT dad 
nu o's ITT add 
nu o's did tat 
nu o's did AT&T 
nu o's it'd tad 
nu o's tit dad 
nu o's tit add 
nu Ott is add 
nu Ott is dad 
nu Ott Dis ad 
nu Ott Ida SD 
nu Ott Ida d's 
nu Ott did a's 
nu Ott did as 
nu Ott did sa 
nu Ott aid SD 
nu Ott aid d's 
nu Ott I'd sad 
nu Ott Addis 
nu Ott i's add 
nu Ott i's dad 
nu so ITT add 
nu so ITT dad 
nu so IT&T add 
nu so IT&T dad 
nu so did AT&T 
nu so did tat 
nu so it'd tad 
nu so tit add 
nu so tit dad 
nu so tid tad 
nu sod ITT ad 
nu sod IT&T ad 
nu sod I'd tat 
nu sod I'd AT&T 
nu sod ti tad 
nu sod it tad 
nu sod it'd at 
nu sod tit ad 
nu sod tid at 
nu Todd is at 
nu Todd ti sa 
nu Todd ti as 
nu Todd ti a's 
nu Todd it sa 
nu Todd it as 
nu Todd it a's 
nu Todd i's at 
nu toast did 
nu tot is dad 
nu tot is add 
nu tot Dis ad 
nu tot Ida d's 
nu tot Ida SD 
nu tot did a's 
nu tot did as 
nu tot did sa 
nu tot aid d's 
nu tot aid SD 
nu tot I'd sad 
nu tot Addis 
nu tot i's dad 
nu tot i's add 
nu tao did t's 
nu tao did St. 
nu tao did 1st 
nu tao did St 
nu tao it'd SD 
nu tao it'd d's 
nu tao tid SD 
nu tao tid d's 
nu ditto sad 
tout sin dad 
tout sin add 
tout din sad 
tout in ad d's 
tout in ad SD 
tout dais 2nd 
tout dais ND 
tout is ad 2nd 
tout is ad ND 
tout Dis DNA 
tout Dis Dan 
tout Dis and 
tout did San 
tout I'd ad n's 
tout I'd sa ND 
tout I'd sa 2nd 
tout I'd as ND 
tout I'd as 2nd 
tout I'd a's ND 
tout I'd a's 2nd 
tout I'd sand 
tout I'd an SD 
tout I'd an d's 
tout said 2nd 
tout said ND 
tout i's ad 2nd 
tout i's ad ND 
tun dot dais 
tun dot is ad 
tun dot I'd sa 
tun dot I'd as 
tun dot I'd a's 
tun dot said 
tun dot i's ad 
tun Dido sat 
tun Io tad SD 
tun Io tad d's 
tun Io dad 1st 
tun Io dad St. 
tun Io dad St 
tun Io dad t's 
tun Io add 1st 
tun Io add St. 
tun Io add St 
tun Io add t's 
tun do is tad 
tun do Dis at 
tun do Ida 1st 
tun do Ida St. 
tun do Ida St 
tun do Ida t's 
tun do aid 1st 
tun do aid St. 
tun do aid St 
tun do aid t's 
tun do I'd sat 
tun do ti sad 
tun do it sad 
tun do staid 
tun do it'd as 
tun do it'd sa 
tun do it'd a's 
tun do i's tad 
tun do sit ad 
tun do tid as 
tun do tid sa 
tun do tid a's 
tun Ito ad d's 
tun Ito ad SD 
tun toad Dis 
tun ado I'd 1st 
tun ado I'd St. 
tun ado I'd t's 
tun ado I'd St 
tun ado ti d's 
tun ado ti SD 
tun ado it d's 
tun ado it SD 
tun to is dad 
tun to is add 
tun to Dis ad 
tun to Ida d's 
tun to Ida SD 
tun to did as 
tun to did sa 
tun to did a's 
tun to aid d's 
tun to aid SD 
tun to I'd sad 
tun to Addis 
tun to i's dad 
tun to i's add 
tun oat I'd SD 
tun oat I'd d's 
tun odd is at 
tun odd ti a's 
tun odd ti sa 
tun odd ti as 
tun odd it a's 
tun odd it sa 
tun odd it as 
tun odd i's at 
tun o's did at 
tun o's I'd tad 
tun o's ti dad 
tun o's ti add 
tun o's it dad 
tun o's it add 
tun o's it'd ad 
tun o's tid ad 
tun Otis add 
tun Otis dad 
tun so did at 
tun so I'd tad 
tun so ti add 
tun so ti dad 
tun so it add 
tun so it dad 
tun so it'd ad 
tun so tid ad 
tun sod I'd at 
tun sod ti ad 
tun sod it ad 
tun soda it'd 
tun soda tid 
tun tao I'd SD 
tun tao I'd d's 
tun Taos did 
tun DOD ti a's 
tun DOD ti sa 
tun DOD ti as 
tun DOD it a's 
tun DOD it sa 
tun DOD it as 
tun DOD i's at 
tun DOD is at 
tuna dot Dis 
tuna Dido t's 
tuna Dido St 
tuna Dido St. 
tuna Dido 1st 
tuna do it d's 
tuna do it SD 
tuna do ti d's 
tuna do ti SD 
tuna do I'd 1st 
tuna do I'd t's 
tuna do I'd St 
tuna do I'd St. 
tuna to I'd SD 
tuna to I'd d's 
tuna odd sit 
tuna sod it'd 
tuna sod tid 
tuna Todd i's 
tuna Todd is 
tuna DOD sit 
Tunis dot ad 
Tunis do tad 
Tunis to dad 
Tunis to add 
Tunis odd at 
Tunis DOD at 
UN Dido at 1st 
UN Dido at t's 
UN Dido at St. 
UN Dido at St 
UN do IT&T sad 
UN do ITT sad 
UN do tit sad 
UN do it'd sat 
UN do ti at SD 
UN do ti at d's 
UN do ti ad t's 
UN do ti ad 1st 
UN do ti ad St 
UN do ti ad St. 
UN do sit tad 
UN do it at SD 
UN do it at d's 
UN do it ad t's 
UN do it ad 1st 
UN do it ad St 
UN do it ad St. 
UN do tid sat 
UN do I'd at 1st 
UN do I'd at St 
UN do I'd at St. 
UN do I'd at t's 
UN do Dis AT&T 
UN do Dis tat 
UN Ito add St. 
UN Ito add t's 
UN Ito add St 
UN Ito add 1st 
UN Ito dad St. 
UN Ito dad t's 
UN Ito dad St 
UN Ito dad 1st 
UN Ito tad d's 
UN Ito tad SD 
UN toad ti SD 
UN toad ti d's 
UN toad it SD 
UN toad it d's 
UN toad I'd St 
UN toad I'd t's 
UN toad I'd St. 
UN toad I'd 1st 
UN ado IT&T SD 
UN ado IT&T d's 
UN ado ITT SD 
UN ado ITT d's 
UN ado tit SD 
UN ado tit d's 
UN ado it'd t's 
UN ado it'd St. 
UN ado it'd 1st 
UN ado it'd St 
UN ado tid t's 
UN ado tid St. 
UN ado tid 1st 
UN ado tid St 
UN to it'd sad 
UN to ti ad d's 
UN to ti ad SD 
UN to sit dad 
UN to sit add 
UN to it ad SD 
UN to it ad d's 
UN to tid sad 
UN to I'd ad 1st 
UN to I'd ad St. 
UN to I'd ad St 
UN to I'd ad t's 
UN to I'd at d's 
UN to I'd at SD 
UN to did sat 
UN to Dis tad 
UN oat it'd SD 
UN oat it'd d's 
UN oat tid SD 
UN oat tid d's 
UN oat did St. 
UN oat did t's 
UN oat did 1st 
UN oat did St 
UN odd IT&T as 
UN odd IT&T sa 
UN odd IT&T a's 
UN odd ITT as 
UN odd ITT sa 
UN odd ITT a's 
UN odd tit as 
UN odd tit sa 
UN odd tit a's 
UN odd ti sat 
UN odd i's AT&T 
UN odd i's tat 
UN odd sit at 
UN odd it sat 
UN odd is AT&T 
UN odd is tat 
UN o's IT&T add 
UN o's IT&T dad 
UN o's ITT add 
UN o's ITT dad 
UN o's tit add 
UN o's tit dad 
UN o's it'd tad 
UN o's tid tad 
UN o's did AT&T 
UN o's did tat 
UN Ott Addis 
UN Ott i's dad 
UN Ott i's add 
UN Ott aid d's 
UN Ott aid SD 
UN Ott I'd sad 
UN Ott did as 
UN Ott did a's 
UN Ott did sa 
UN Ott Ida d's 
UN Ott Ida SD 
UN Ott is dad 
UN Ott is add 
UN Ott Dis ad 
UN so IT&T dad 
UN so IT&T add 
UN so ITT dad 
UN so ITT add 
UN so tit dad 
UN so tit add 
UN so it'd tad 
UN so tid tad 
UN so did AT&T 
UN so did tat 
UN sod IT&T ad 
UN sod ITT ad 
UN sod tit ad 
UN sod it'd at 
UN sod ti tad 
UN sod it tad 
UN sod tid at 
UN sod I'd tat 
UN sod I'd AT&T 
UN Todd ti sa 
UN Todd ti a's 
UN Todd ti as 
UN Todd i's at 
UN Todd it sa 
UN Todd it a's 
UN Todd it as 
UN Todd is at 
UN toast did 
UN tot Addis 
UN tot i's add 
UN tot i's dad 
UN tot aid SD 
UN tot aid d's 
UN tot I'd sad 
UN tot did as 
UN tot did a's 
UN tot did sa 
UN tot Ida d's 
UN tot Ida SD 
UN tot is add 
UN tot is dad 
UN tot Dis ad 
UN tao it'd d's 
UN tao it'd SD 
UN tao tid d's 
UN tao tid SD 
UN tao did St 
UN tao did St. 
UN tao did t's 
UN tao did 1st 
UN ditto sad 
UN dot it'd as 
UN dot it'd sa 
UN dot it'd a's 
UN dot staid 
UN dot ti sad 
UN dot i's tad 
UN dot sit ad 
UN dot it sad 
UN dot aid 1st 
UN dot aid St 
UN dot aid St. 
UN dot aid t's 
UN dot tid as 
UN dot tid sa 
UN dot tid a's 
UN dot I'd sat 
UN dot Ida t's 
UN dot Ida St. 
UN dot Ida St 
UN dot Ida 1st 
UN dot is tad 
UN dot Dis at 
UN DOD IT&T as 
UN DOD IT&T sa 
UN DOD IT&T a's 
UN DOD ITT as 
UN DOD ITT sa 
UN DOD ITT a's 
UN DOD tit as 
UN DOD tit sa 
UN DOD tit a's 
UN DOD ti sat 
UN DOD i's AT&T 
UN DOD i's tat 
UN DOD sit at 
UN DOD it sat 
UN DOD is AT&T 
UN DOD is tat 
Dutton said 
Dutton i's ad 
Dutton dais 
Dutton I'd a's 
Dutton I'd sa 
Dutton I'd as 
Dutton is ad 
du into ad St. 
du into ad t's 
du into ad 1st 
du into ad St 
du into at SD 
du into at d's 
du Io at 2nd t's 
du Io at 2nd 1st 
du Io at 2nd St. 
du Io at 2nd St 
du Io at ND t's 
du Io at ND 1st 
du Io at ND St. 
du Io at ND St 
du Io sad TNT 
du ion tat SD 
du ion tat d's 
du ion tad t's 
du ion tad St 
du ion tad 1st 
du ion tad St. 
du ion AT&T SD 
du ion AT&T d's 
du iota ND t's 
du iota ND St 
du iota ND 1st 
du iota ND St. 
du iota 2nd t's 
du iota 2nd St 
du iota 2nd 1st 
du iota 2nd St. 
du do sin tat 
du do sin AT&T 
du do NTIS at 
du do tint sa 
du do tint a's 
du do tint as 
du do tin sat 
du do isn't at 
du do nit sat 
du do in at t's 
du do in at St 
du do in at 1st 
du do in at St. 
du do anti St 
du do anti 1st 
du do anti St. 
du do anti t's 
du do ain't St 
du do ain't 1st 
du do ain't St. 
du do ain't t's 
du do IT&T San 
du do tit San 
du do ti Stan 
du do ti at n's 
du do ti an St 
du do ti an 1st 
du do ti an St. 
du do ti an t's 
du do ITT San 
du do sit Nat 
du do sit tan 
du do sit ant 
du do it Stan 
du do it at n's 
du do it an t's 
du do it an 1st 
du do it an St 
du do it an St. 
du Ito and t's 
du Ito and 1st 
du Ito and St 
du Ito and St. 
du Ito Dan t's 
du Ito Dan 1st 
du Ito Dan St 
du Ito Dan St. 
du Ito ant d's 
du Ito ant SD 
du Ito DNA t's 
du Ito DNA 1st 
du Ito DNA St 
du Ito DNA St. 
du Ito tad n's 
du Ito stand 
du Ito sat ND 
du Ito sat 2nd 
du Ito Nat d's 
du Ito Nat SD 
du Ito tan d's 
du Ito tan SD 
du don't ti a's 
du don't ti as 
du don't ti sa 
du don't i's at 
du don't it a's 
du don't it as 
du don't it sa 
du don't is at 
du NATO ti d's 
du NATO ti SD 
du NATO it d's 
du NATO it SD 
du NATO I'd St 
du NATO I'd 1st 
du NATO I'd St. 
du NATO I'd t's 
du toad isn't 
du toad in St. 
du toad in t's 
du toad in 1st 
du toad in St 
du toad NTIS 
du toad ti n's 
du toad it n's 
du no IT&T sad 
du no tit sad 
du no it'd sat 
du no ti at d's 
du no ti at SD 
du no ti ad St. 
du no ti ad t's 
du no ti ad 1st 
du no ti ad St 
du no ITT sad 
du no sit tad 
du no it at d's 
du no it at SD 
du no it ad St 
du no it ad St. 
du no it ad t's 
du no it ad 1st 
du no tid sat 
du no I'd at 1st 
du no I'd at t's 
du no I'd at St 
du no I'd at St. 
du no Dis AT&T 
du no Dis tat 
du nod IT&T a's 
du nod IT&T sa 
du nod IT&T as 
du nod tit a's 
du nod tit sa 
du nod tit as 
du nod ti sat 
du nod i's tat 
du nod i's AT&T 
du nod ITT a's 
du nod ITT sa 
du nod ITT as 
du nod sit at 
du nod it sat 
du nod is tat 
du nod is AT&T 
du not it'd as 
du not it'd sa 
du not it'd a's 
du not staid 
du not ti sad 
du not i's tad 
du not sit ad 
du not it sad 
du not aid St. 
du not aid 1st 
du not aid St 
du not aid t's 
du not tid a's 
du not tid as 
du not tid sa 
du not I'd sat 
du not Ida t's 
du not Ida St 
du not Ida St. 
du not Ida 1st 
du not is tad 
du not Dis at 
du ado tin t's 
du ado tin St 
du ado tin St. 
du ado tin 1st 
du ado stint 
du ado nit t's 
du ado nit St 
du ado nit St. 
du ado nit 1st 
du ado IT&T n's 
du ado tit n's 
du ado i's TNT 
du ado ITT n's 
du ado is TNT 
du to tin sad 
du to isn't ad 
du to sin tad 
du to Dis tan 
du to Dis Nat 
du to Dis ant 
du to is at 2nd 
du to is at ND 
du to din sat 
du to dint as 
du to dint sa 
du to dint a's 
du to nit sad 
du to in at d's 
du to in at SD 
du to in ad t's 
du to in ad St 
du to in ad 1st 
du to in ad St. 
du to anti d's 
du to anti SD 
du to I'd Stan 
du to I'd at n's 
du to I'd an 1st 
du to I'd an St 
du to I'd an St. 
du to I'd an t's 
du to ain't SD 
du to ain't d's 
du to NTIS ad 
du to it'd San 
du to ti as 2nd 
du to ti as ND 
du to ti ad n's 
du to ti sa 2nd 
du to ti sa ND 
du to ti a's ND 
du to ti a's 2nd 
du to ti an SD 
du to ti an d's 
du to ti sand 
du to i's at ND 
du to i's at 2nd 
du to sit DNA 
du to sit and 
du to sit Dan 
du to it as ND 
du to it as 2nd 
du to it ad n's 
du to it sa ND 
du to it sa 2nd 
du to it a's ND 
du to it a's 2nd 
du to it an d's 
du to it an SD 
du to it sand 
du to tid San 
du oat tin SD 
du oat tin d's 
du oat din 1st 
du oat din t's 
du oat din St. 
du oat din St 
du oat nit SD 
du oat nit d's 
du oat it'd n's 
du oat sit 2nd 
du oat sit ND 
du oat tid n's 
du Odin at St. 
du Odin at t's 
du Odin at 1st 
du Odin at St 
du oint at SD 
du oint at d's 
du oint ad 1st 
du oint ad t's 
du oint ad St 
du oint ad St. 
du on Dis AT&T 
du on Dis tat 
du on I'd at 1st 
du on I'd at t's 
du on I'd at St 
du on I'd at St. 
du on IT&T sad 
du on tit sad 
du on it'd sat 
du on ti at SD 
du on ti at d's 
du on ti ad St 
du on ti ad St. 
du on ti ad 1st 
du on ti ad t's 
du on ITT sad 
du on sit tad 
du on it at SD 
du on it at d's 
du on it ad t's 
du on it ad St 
du on it ad St. 
du on it ad 1st 
du on tid sat 
du o's tint ad 
du o's tin tad 
du o's din AT&T 
du o's din tat 
du o's dint at 
du o's nit tad 
du o's Ida TNT 
du o's IT&T DNA 
du o's IT&T Dan 
du o's IT&T and 
du o's tit DNA 
du o's tit Dan 
du o's tit and 
du o's it'd Nat 
du o's it'd ant 
du o's it'd tan 
du o's ti at ND 
du o's ti at 2nd 
du o's ITT DNA 
du o's ITT Dan 
du o's ITT and 
du o's it at ND 
du o's it at 2nd 
du o's aid TNT 
du o's tid Nat 
du o's tid ant 
du o's tid tan 
du Otis at 2nd 
du Otis at ND 
du Ott sin ad 
du Ott Dis an 
du Ott is and 
du Ott is Dan 
du Ott is DNA 
du Ott din as 
du Ott din a's 
du Ott din sa 
du Ott in sad 
du Ott Ida n's 
du Ott ani SD 
du Ott ani d's 
du Ott I'd San 
du Ott i's and 
du Ott i's Dan 
du Ott i's DNA 
du Ott aid n's 
du don is tat 
du don is AT&T 
du don IT&T sa 
du don IT&T a's 
du don IT&T as 
du don tit sa 
du don tit a's 
du don tit as 
du don ti sat 
du don i's tat 
du don i's AT&T 
du don ITT sa 
du don ITT a's 
du don ITT as 
du don sit at 
du don it sat 
du dot saint 
du dot satin 
du dot tin as 
du dot tin a's 
du dot tin sa 
du dot sin at 
du dot stain 
du dot is Nat 
du dot is ant 
du dot is tan 
du dot nit as 
du dot nit a's 
du dot nit sa 
du dot in sat 
du dot ani t's 
du dot ani 1st 
du dot ani St. 
du dot ani St 
du dot ti San 
du dot i's Nat 
du dot i's ant 
du dot i's tan 
du dot sit an 
du dot it San 
du ditto San 
du Toni ad St 
du Toni ad t's 
du Toni ad 1st 
du Toni ad St. 
du Toni at d's 
du Toni at SD 
du Santo it'd 
du Santo tid 
du Sao I'd TNT 
du Sao IT&T 2nd 
du Sao IT&T ND 
du Sao tit 2nd 
du Sao tit ND 
du Sao ITT 2nd 
du Sao ITT ND 
du Taos dint 
du Taos ti ND 
du Taos ti 2nd 
du Taos it ND 
du Taos it 2nd 
du Taoist 2nd 
du Taoist ND 
du tao din t's 
du tao din St 
du tao din St. 
du tao din 1st 
du tao nit SD 
du tao nit d's 
du tao tin SD 
du tao tin d's 
du tao it'd n's 
du tao sit ND 
du tao sit 2nd 
du tao tid n's 
du ton Dis at 
du ton is tad 
du ton Ida 1st 
du ton Ida St 
du ton Ida t's 
du ton Ida St. 
du ton I'd sat 
du ton it'd as 
du ton it'd a's 
du ton it'd sa 
du ton staid 
du ton ti sad 
du ton i's tad 
du ton sit ad 
du ton it sad 
du ton aid 1st 
du ton aid St. 
du ton aid t's 
du ton aid St 
du ton tid as 
du ton tid a's 
du ton tid sa 
du so din tat 
du so din AT&T 
du so dint at 
du so nit tad 
du so Ida TNT 
du so tin tad 
du so IT&T Dan 
du so IT&T DNA 
du so IT&T and 
du so tit Dan 
du so tit DNA 
du so tit and 
du so it'd tan 
du so it'd Nat 
du so it'd ant 
du so ti at 2nd 
du so ti at ND 
du so ITT Dan 
du so ITT DNA 
du so ITT and 
du so it at 2nd 
du so it at ND 
du so aid TNT 
du so tid tan 
du so tid Nat 
du so tid ant 
du so tint ad 
du sod taint 
du sod nit at 
du sod in AT&T 
du sod in tat 
du sod tin at 
du sod Titan 
du sod IT&T an 
du sod tit an 
du sod ti ant 
du sod ti Nat 
du sod ti tan 
du sod ITT an 
du sod it ant 
du sod it Nat 
du sod it tan 
du soda tint 
du son I'd AT&T 
du son I'd tat 
du son IT&T ad 
du son tit ad 
du son it'd at 
du son ti tad 
du son ITT ad 
du son it tad 
du son tid at 
du toast din 
du tot Dis an 
du tot is Dan 
du tot is DNA 
du tot is and 
du tot din as 
du tot din a's 
du tot din sa 
du tot in sad 
du tot Ida n's 
du tot ani SD 
du tot ani d's 
du tot I'd San 
du tot sin ad 
du tot i's Dan 
du tot i's DNA 
du tot i's and 
du tot aid n's 
dud into sat 
dud Io tat n's 
dud Io AT&T n's 
dud Io ant t's 
dud Io ant St 
dud Io ant St. 
dud Io ant 1st 
dud Io tan t's 
dud Io tan St 
dud Io tan St. 
dud Io tan 1st 
dud Io Nat t's 
dud Io Nat St 
dud Io Nat St. 
dud Io Nat 1st 
dud Io sa TNT 
dud Io a's TNT 
dud Io as TNT 
dud ion at St 
dud ion at St. 
dud ion at 1st 
dud ion at t's 
dud Ito at n's 
dud Ito Stan 
dud Ito an 1st 
dud Ito an St. 
dud Ito an t's 
dud Ito an St 
dud NATO sit 
dud no is tat 
dud no is AT&T 
dud no IT&T sa 
dud no IT&T a's 
dud no IT&T as 
dud no tit sa 
dud no tit a's 
dud no tit as 
dud no ti sat 
dud no i's tat 
dud no i's AT&T 
dud no ITT sa 
dud no ITT a's 
dud no ITT as 
dud no sit at 
dud no it sat 
dud not is at 
dud not ti sa 
dud not ti a's 
dud not ti as 
dud not i's at 
dud not it sa 
dud not it a's 
dud not it as 
dud to is ant 
dud to is tan 
dud to is Nat 
dud to nit as 
dud to nit a's 
dud to nit sa 
dud to in sat 
dud to tin as 
dud to tin sa 
dud to tin a's 
dud to ani St 
dud to ani St. 
dud to ani 1st 
dud to ani t's 
dud to sin at 
dud to ti San 
dud to i's ant 
dud to i's tan 
dud to i's Nat 
dud to sit an 
dud to it San 
dud to satin 
dud to stain 
dud to saint 
dud oat in St 
dud oat in St. 
dud oat in 1st 
dud oat in t's 
dud oat NTIS 
dud oat ti n's 
dud oat it n's 
dud oat isn't 
dud oint sat 
dud on is AT&T 
dud on is tat 
dud on IT&T as 
dud on IT&T sa 
dud on IT&T a's 
dud on tit as 
dud on tit sa 
dud on tit a's 
dud on ti sat 
dud on i's AT&T 
dud on i's tat 
dud on ITT as 
dud on ITT sa 
dud on ITT a's 
dud on sit at 
dud on it sat 
dud o's taint 
dud o's nit at 
dud o's in tat 
dud o's in AT&T 
dud o's tin at 
dud o's Titan 
dud o's IT&T an 
dud o's tit an 
dud o's ti ant 
dud o's ti Nat 
dud o's ti tan 
dud o's ITT an 
dud o's it ant 
dud o's it Nat 
dud o's it tan 
dud Otis tan 
dud Otis Nat 
dud Otis ant 
dud Ott is an 
dud Ott in as 
dud Ott in a's 
dud Ott in sa 
dud Ott i's an 
dud Ott Sian 
dud Ott ANSI 
dud Toni sat 
dud Santo ti 
dud Santo it 
dud Sao tint 
dud Taos nit 
dud Taos tin 
dud tao in 1st 
dud tao in t's 
dud tao in St. 
dud tao in St 
dud tao NTIS 
dud tao ti n's 
dud tao it n's 
dud tao isn't 
dud ton is at 
dud ton ti as 
dud ton ti a's 
dud ton ti sa 
dud ton i's at 
dud ton it as 
dud ton it a's 
dud ton it sa 
dud so taint 
dud so nit at 
dud so in AT&T 
dud so in tat 
dud so tin at 
dud so Titan 
dud so IT&T an 
dud so tit an 
dud so ti tan 
dud so ti ant 
dud so ti Nat 
dud so ITT an 
dud so it tan 
dud so it ant 
dud so it Nat 
dud son ti at 
dud son it at 
dud toast in 
dud tot is an 
dud tot in as 
dud tot in a's 
dud tot in sa 
dud tot i's an 
dud tot Sian 
dud tot ANSI 
dun Io tad 1st 
dun Io tad St 
dun Io tad St. 
dun Io tad t's 
dun Io tat SD 
dun Io tat d's 
dun Io AT&T SD 
dun Io AT&T d's 
dun do is tat 
dun do is AT&T 
dun do i's tat 
dun do i's AT&T 
dun do ITT a's 
dun do ITT sa 
dun do ITT as 
dun do sit at 
dun do it sat 
dun do ti sat 
dun do tit a's 
dun do tit sa 
dun do tit as 
dun do IT&T a's 
dun do IT&T sa 
dun do IT&T as 
dun Ito ad St. 
dun Ito ad t's 
dun Ito ad 1st 
dun Ito ad St 
dun Ito at SD 
dun Ito at d's 
dun toad sit 
dun ado it St 
dun ado it 1st 
dun ado it St. 
dun ado it t's 
dun ado ti St 
dun ado ti 1st 
dun ado ti St. 
dun ado ti t's 
dun to Dis at 
dun to Ida 1st 
dun to Ida St. 
dun to Ida t's 
dun to Ida St 
dun to is tad 
dun to I'd sat 
dun to tid a's 
dun to tid sa 
dun to tid as 
dun to aid St 
dun to aid t's 
dun to aid St. 
dun to aid 1st 
dun to it'd a's 
dun to it'd sa 
dun to it'd as 
dun to staid 
dun to i's tad 
dun to sit ad 
dun to it sad 
dun to ti sad 
dun oat I'd 1st 
dun oat I'd St. 
dun oat I'd St 
dun oat I'd t's 
dun oat it SD 
dun oat it d's 
dun oat ti SD 
dun oat ti d's 
dun o's I'd tat 
dun o's I'd AT&T 
dun o's tid at 
dun o's it'd at 
dun o's ITT ad 
dun o's it tad 
dun o's ti tad 
dun o's tit ad 
dun o's IT&T ad 
dun Otis tad 
dun Ott is ad 
dun Ott I'd a's 
dun Ott I'd sa 
dun Ott I'd as 
dun Ott dais 
dun Ott said 
dun Ott i's ad 
dun dot is at 
dun dot i's at 
dun dot it as 
dun dot it sa 
dun dot it a's 
dun dot ti as 
dun dot ti sa 
dun dot ti a's 
dun ditto as 
dun ditto sa 
dun ditto a's 
dun Taos tid 
dun Taos it'd 
dun tao I'd t's 
dun tao I'd St 
dun tao I'd 1st 
dun tao I'd St. 
dun tao it d's 
dun tao it SD 
dun tao ti d's 
dun tao ti SD 
dun so I'd tat 
dun so I'd AT&T 
dun so tid at 
dun so it'd at 
dun so ITT ad 
dun so it tad 
dun so ti tad 
dun so tit ad 
dun so IT&T ad 
dun sod it at 
dun sod ti at 
dun soda ITT 
dun soda tit 
dun soda IT&T 
dun toast I'd 
dun tot is ad 
dun tot I'd a's 
dun tot I'd sa 
dun tot I'd as 
dun tot dais 
dun tot said 
dun tot i's ad 
dust into ad 
dust Io at ND 
dust Io at 2nd 
dust ion tad 
dust iota 2nd 
dust iota ND 
dust do in at 
dust do anti 
dust do ain't 
dust do ti an 
dust do it an 
dust Ito Dan 
dust Ito DNA 
dust Ito and 
dust NATO I'd 
dust toad in 
dust no ti ad 
dust no it ad 
dust no I'd at 
dust not aid 
dust not Ida 
dust ado nit 
dust ado tin 
dust to in ad 
dust to I'd an 
dust oat din 
dust Odin at 
dust oint ad 
dust on ti ad 
dust on it ad 
dust on I'd at 
dust dot ani 
dust Toni ad 
dust tao din 
dust ton aid 
dust ton Ida 
348 candidates
Order of search will be bchsoreatklmdnzgpqfijuvwxy
throb AC c's et 
throb AC SC et 
throb AC sect 
throb act sec 
throb cat sec 
throb etc sac 
tab chert cos 
tab chose CRT 
tab core c's 4th 
tab core c's 10th 
tab core c's 5th 
tab core c's 9th 
tab core c's 8th 
tab core c's 7th 
tab core c's 6th 
tab core SC 10th 
tab core SC 5th 
tab core SC 9th 
tab core SC 8th 
tab core SC 4th 
tab core SC 7th 
tab core SC 6th 
tab cos CRT eh 
tab cos CRT he 
tab cos retch 
tab cot c's her 
tab cot SC her 
tab crest hoc 
tab crotch e's 
tab CRT c's hoe 
tab CRT hoc e's 
tab CRT SC hoe 
tab CRT sec oh 
tab CRT sec ho 
tab c's etc rho 
tab c's etch or 
tab c's hector 
tab c's hoc ret 
tab c's Oct her 
tab c's ROTC he 
tab c's ROTC eh 
tab c's tech or 
tab torch sec 
tab etc hoc r's 
tab etc SC rho 
tab etch SC or 
tab hector SC 
tab hoc SC ret 
tab Oct SC her 
tab ROTC SC eh 
tab ROTC SC he 
tab SC tech or 
tab scorch et 
tab scotch re 
tab soccer 10th 
tab soccer 7th 
tab soccer 8th 
tab soccer 5th 
tab soccer 4th 
tab soccer 6th 
tab soccer 9th 
sob AC CRT the 
sob ace CRT 5th 
sob ace CRT 8th 
sob ace CRT 7th 
sob ace CRT 10th 
sob ace CRT 9th 
sob ace CRT 4th 
sob ace CRT 6th 
sob act chert 
sob act CRT eh 
sob act CRT he 
sob act retch 
sob arc etc 4th 
sob arc etc 9th 
sob arc etc 10th 
sob arc etc 7th 
sob arc etc 8th 
sob arc etc 5th 
sob arc etc 6th 
sob car etc 4th 
sob car etc 9th 
sob car etc 10th 
sob car etc 7th 
sob car etc 8th 
sob car etc 5th 
sob car etc 6th 
sob cart etch 
sob cart tech 
sob cat chert 
sob cat CRT eh 
sob cat CRT he 
sob cat retch 
sob catch ret 
sob chart etc 
sob cheat CRT 
sob CRT teach 
sob CRT etc ha 
sob CRT etc ah 
sob etc RCA 4th 
sob etc RCA 5th 
sob etc RCA 8th 
sob etc RCA 9th 
sob etc RCA 7th 
sob etc RCA 6th 
sob etc RCA 10th 
sorb AC etc 4th 
sorb AC etc 8th 
sorb AC etc 5th 
sorb AC etc 9th 
sorb AC etc 7th 
sorb AC etc 6th 
sorb AC etc 10th 
sorb act etch 
sorb act tech 
sorb cat etch 
sorb cat tech 
sorb catch et 
sorb chat etc 
stab crochet 
stab CRT echo 
scab chert to 
scab cot 6th re 
scab cot 9th re 
scab cot 7th re 
scab cot 4th re 
scab cot 8th re 
scab cot 5th re 
scab cot 10th re 
scab CRT ho et 
scab CRT oh et 
scab CRT he to 
scab CRT eh to 
scab torch et 
scab etc 6th or 
scab etc Thor 
scab etc 9th or 
scab etc 7th or 
scab etc 4th or 
scab etc Roth 
scab etc 8th or 
scab etc 5th or 
scab etc 10th or 
scab etch rot 
scab etch tor 
scab Oct 6th re 
scab Oct 9th re 
scab Oct 7th re 
scab Oct 4th re 
scab Oct 8th re 
scab Oct 5th re 
scab Oct 10th re 
scab retch to 
scab ROTC the 
scab tech tor 
scab tech rot 
robe act c's 10th 
robe act c's 5th 
robe act c's 8th 
robe act c's 4th 
robe act c's 7th 
robe act c's 9th 
robe act c's 6th 
robe act SC 10th 
robe act SC 5th 
robe act SC 8th 
robe act SC 4th 
robe act SC 7th 
robe act SC 9th 
robe act SC 6th 
robe cat c's 7th 
robe cat c's 4th 
robe cat c's 8th 
robe cat c's 10th 
robe cat c's 5th 
robe cat c's 9th 
robe cat c's 6th 
robe cat SC 7th 
robe cat SC 4th 
robe cat SC 8th 
robe cat SC 10th 
robe cat SC 5th 
robe cat SC 9th 
robe cat SC 6th 
robe catch t's 
robe catch St. 
robe catch 1st 
robe catch St 
abc chest rot 
abc chest tor 
abc core 10th t's 
abc core 10th St 
abc core 10th St. 
abc core 10th 1st 
abc core 8th St 
abc core 8th St. 
abc core 8th 1st 
abc core 8th t's 
abc core 4th St 
abc core 4th St. 
abc core 4th 1st 
abc core 4th t's 
abc core 7th St 
abc core 7th St. 
abc core 7th 1st 
abc core 7th t's 
abc core 5th St 
abc core 5th St. 
abc core 5th 1st 
abc core 5th t's 
abc core 9th St 
abc core 9th St. 
abc core 9th 1st 
abc core 9th t's 
abc core 6th St 
abc core 6th St. 
abc core 6th 1st 
abc core 6th t's 
abc cos 10th ret 
abc cos 8th ret 
abc cos 4th ret 
abc cos 7th ret 
abc cos 5th ret 
abc cos 9th ret 
abc cos 6th ret 
abc cost 10th re 
abc cost 8th re 
abc cost 4th re 
abc cost 7th re 
abc cost 5th re 
abc cost 9th re 
abc cost 6th re 
abc cot the r's 
abc cot h's ret 
abc cot her St. 
abc cot her St 
abc cot her t's 
abc cot her 1st 
abc crest hot 
abc CRT hot e's 
abc CRT ho set 
abc CRT ho EST 
abc CRT ethos 
abc CRT she to 
abc CRT those 
abc CRT oh set 
abc CRT oh EST 
abc CRT the o's 
abc CRT the so 
abc CRT hoe St. 
abc CRT hoe St 
abc CRT hoe t's 
abc CRT hoe 1st 
abc CRT h's toe 
abc c's Roth et 
abc c's eh tort 
abc c's eh trot 
abc c's 6th or et 
abc c's 6th tore 
abc c's 6th to re 
abc c's 9th tore 
abc c's 9th to re 
abc c's 9th or et 
abc c's hot ret 
abc c's 5th tore 
abc c's 5th to re 
abc c's 5th or et 
abc c's 7th tore 
abc c's 7th to re 
abc c's 7th or et 
abc c's 4th tore 
abc c's 4th to re 
abc c's 4th or et 
abc c's her Ott 
abc c's her tot 
abc c's he trot 
abc c's he tort 
abc c's Thor et 
abc c's the tor 
abc c's the rot 
abc c's 8th tore 
abc c's 8th or et 
abc c's 8th to re 
abc c's 10th tore 
abc c's 10th or et 
abc c's 10th to re 
abc torch EST 
abc torch set 
abc escort 6th 
abc escort 9th 
abc escort 5th 
abc escort 7th 
abc escort 4th 
abc escort 8th 
abc escort 10th 
abc etc hot r's 
abc etc short 
abc etc rho St 
abc etc rho 1st 
abc etc rho St. 
abc etc rho t's 
abc etc h's rot 
abc etc h's tor 
abc etch r's to 
abc etch St or 
abc etch sort 
abc etch 1st or 
abc etch St. or 
abc etch t's or 
abc hector St 
abc hector 1st 
abc hector St. 
abc hector t's 
abc hoc St ret 
abc hoc 1st ret 
abc hoc St. ret 
abc hoc t's ret 
abc Oct her St 
abc Oct her 1st 
abc Oct her St. 
abc Oct her t's 
abc Oct the r's 
abc Oct h's ret 
abc ROTC 4th e's 
abc ROTC 7th e's 
abc ROTC 5th e's 
abc ROTC Seth 
abc ROTC 9th e's 
abc ROTC he 1st 
abc ROTC he St. 
abc ROTC he St 
abc ROTC he t's 
abc ROTC h's et 
abc ROTC 8th e's 
abc ROTC 6th e's 
abc ROTC 10th e's 
abc ROTC eh 1st 
abc ROTC eh St. 
abc ROTC eh St 
abc ROTC eh t's 
abc SC 4th or et 
abc SC 4th tore 
abc SC 4th to re 
abc SC 7th or et 
abc SC 7th tore 
abc SC 7th to re 
abc SC 5th or et 
abc SC 5th tore 
abc SC 5th to re 
abc SC hot ret 
abc SC 9th or et 
abc SC 9th tore 
abc SC 9th to re 
abc SC her Ott 
abc SC her tot 
abc SC he trot 
abc SC he tort 
abc SC Thor et 
abc SC the rot 
abc SC the tor 
abc SC Roth et 
abc SC 8th or et 
abc SC 8th tore 
abc SC 8th to re 
abc SC 6th tore 
abc SC 6th to re 
abc SC 6th or et 
abc SC 10th tore 
abc SC 10th to re 
abc SC 10th or et 
abc SC eh trot 
abc SC eh tort 
abc Scot 4th re 
abc Scot 7th re 
abc Scot 5th re 
abc Scot 9th re 
abc Scot 8th re 
abc Scot 6th re 
abc Scot 10th re 
abc Scott her 
abc tech 1st or 
abc tech St or 
abc tech t's or 
abc tech St. or 
abc tech r's to 
abc tech sort 
abc sec 4th tor 
abc sec 4th rot 
abc sec 7th tor 
abc sec 7th rot 
abc sec 5th tor 
abc sec 5th rot 
abc sec 9th tor 
abc sec 9th rot 
abc sec 8th tor 
abc sec 8th rot 
abc sec 6th tor 
abc sec 6th rot 
abc sec 10th tor 
abc sec 10th rot 
abc sect 4th or 
abc sect 7th or 
abc sect 5th or 
abc sect 9th or 
abc sect Thor 
abc sect Roth 
abc sect 8th or 
abc sect 6th or 
abc sect 10th or 
abc sector 4th 
abc sector 7th 
abc sector 5th 
abc sector 9th 
abc sector 8th 
abc sector 6th 
abc sector 10th 
Abe cos CRT 4th 
Abe cos CRT 7th 
Abe cos CRT 5th 
Abe cos CRT 9th 
Abe cos CRT 8th 
Abe cos CRT 6th 
Abe cos CRT 10th 
Abe cot CRT h's 
Abe crotch St. 
Abe crotch t's 
Abe crotch St 
Abe crotch 1st 
Abe CRT c's hot 
Abe CRT hoc 1st 
Abe CRT hoc St. 
Abe CRT hoc t's 
Abe CRT hoc St 
Abe CRT Oct h's 
Abe CRT SC hot 
Abe c's ROTC 6th 
Abe c's ROTC 8th 
Abe c's ROTC 9th 
Abe c's ROTC 5th 
Abe c's ROTC 7th 
Abe c's ROTC 4th 
Abe c's ROTC 10th 
Abe ROTC SC 10th 
Abe ROTC SC 6th 
Abe ROTC SC 8th 
Abe ROTC SC 9th 
Abe ROTC SC 5th 
Abe ROTC SC 7th 
Abe ROTC SC 4th 
abet cosh CRT 
abet CRT c's oh 
abet CRT c's ho 
abet CRT SC oh 
abet CRT SC ho 
abet c's torch 
abet torch SC 
Abo chest CRT 
Abo CRT c's the 
Abo CRT etc h's 
Abo CRT SC the 
Abo CRT sec 7th 
Abo CRT sec 4th 
Abo CRT sec 8th 
Abo CRT sec 9th 
Abo CRT sec 10th 
Abo CRT sec 5th 
Abo CRT sec 6th 
abort c's etch 
abort c's tech 
abort etch SC 
abort SC tech 
rob act chest 
rob act c's the 
rob act etc h's 
rob act SC the 
rob act sec 10th 
rob act sec 6th 
rob act sec 7th 
rob act sec 5th 
rob act sec 4th 
rob act sec 8th 
rob act sec 9th 
rob Acts etch 
rob Acts tech 
rob AC c's 7th et 
rob AC c's 5th et 
rob AC c's 4th et 
rob AC c's 8th et 
rob AC c's 9th et 
rob AC c's 6th et 
rob AC c's 10th et 
rob AC etch t's 
rob AC etch St. 
rob AC etch St 
rob AC etch 1st 
rob AC SC 7th et 
rob AC SC 5th et 
rob AC SC 4th et 
rob AC SC 8th et 
rob AC SC 9th et 
rob AC SC 6th et 
rob AC SC 10th et 
rob AC tech 1st 
rob AC tech t's 
rob AC tech St. 
rob AC tech St 
rob AC sect 7th 
rob AC sect 5th 
rob AC sect 4th 
rob AC sect 8th 
rob AC sect 9th 
rob AC sect 6th 
rob AC sect 10th 
rob cast etch 
rob cast tech 
rob cat chest 
rob cat c's the 
rob cat etc h's 
rob cat SC the 
rob cat sec 7th 
rob cat sec 9th 
rob cat sec 8th 
rob cat sec 4th 
rob cat sec 5th 
rob cat sec 6th 
rob cat sec 10th 
rob catch EST 
rob catch set 
rob chat c's et 
rob chat SC et 
rob chat sect 
rob c's etc hat 
rob c's etch at 
rob c's tact eh 
rob c's tact he 
rob c's tech at 
rob etc sac 10th 
rob etc sac 6th 
rob etc sac 5th 
rob etc sac 4th 
rob etc sac 8th 
rob etc sac 9th 
rob etc sac 7th 
rob etc SC hat 
rob etch SC at 
rob etch scat 
rob tact SC he 
rob tact SC eh 
rob SC tech at 
rob scat tech 
reb act cos 9th 
reb act cos 6th 
reb act cos 8th 
reb act cos 4th 
reb act cos 5th 
reb act cos 10th 
reb act cos 7th 
reb act cot h's 
reb act c's hot 
reb act hoc 1st 
reb act hoc St 
reb act hoc St. 
reb act hoc t's 
reb act Oct h's 
reb act SC hot 
reb AC cost 4th 
reb AC cost 5th 
reb AC cost 10th 
reb AC cost 7th 
reb AC cost 8th 
reb AC cost 6th 
reb AC cost 9th 
reb AC c's 9th to 
reb AC c's 4th to 
reb AC c's 5th to 
reb AC c's 10th to 
reb AC c's 7th to 
reb AC c's 8th to 
reb AC c's 6th to 
reb AC SC 9th to 
reb AC SC 4th to 
reb AC SC 5th to 
reb AC SC 10th to 
reb AC SC 7th to 
reb AC SC 8th to 
reb AC SC 6th to 
reb AC Scot 9th 
reb AC Scot 4th 
reb AC Scot 5th 
reb AC Scot 10th 
reb AC Scot 7th 
reb AC Scot 8th 
reb AC Scot 6th 
reb cat cos 7th 
reb cat cos 8th 
reb cat cos 6th 
reb cat cos 10th 
reb cat cos 5th 
reb cat cos 4th 
reb cat cos 9th 
reb cat cot h's 
reb cat c's hot 
reb cat hoc 1st 
reb cat hoc St. 
reb cat hoc t's 
reb cat hoc St 
reb cat Oct h's 
reb cat SC hot 
reb chat cost 
reb chat c's to 
reb chat SC to 
reb chat Scot 
reb coat c's 10th 
reb coat c's 6th 
reb coat c's 8th 
reb coat c's 7th 
reb coat c's 5th 
reb coat c's 4th 
reb coat c's 9th 
reb coat SC 10th 
reb coat SC 6th 
reb coat SC 8th 
reb coat SC 7th 
reb coat SC 5th 
reb coat SC 4th 
reb coat SC 9th 
reb coca 9th t's 
reb coca 9th St. 
reb coca 9th St 
reb coca 9th 1st 
reb coca 4th St. 
reb coca 4th St 
reb coca 4th 1st 
reb coca 4th t's 
reb coca 5th St 
reb coca 5th 1st 
reb coca 5th t's 
reb coca 5th St. 
reb coca 10th St 
reb coca 10th 1st 
reb coca 10th t's 
reb coca 10th St. 
reb coca 6th St 
reb coca 6th 1st 
reb coca 6th t's 
reb coca 6th St. 
reb coca 8th St 
reb coca 8th 1st 
reb coca 8th t's 
reb coca 8th St. 
reb coca 7th St 
reb coca 7th 1st 
reb coca 7th t's 
reb coca 7th St. 
reb cosh tact 
reb cot c's hat 
reb cot sac 5th 
reb cot sac 10th 
reb cot sac 6th 
reb cot sac 8th 
reb cot sac 7th 
reb cot sac 4th 
reb cot sac 9th 
reb cot SC hat 
reb c's hoc tat 
reb c's hoc AT&T 
reb c's tact ho 
reb c's tact oh 
reb c's Oct hat 
reb accost 5th 
reb accost 10th 
reb accost 6th 
reb accost 8th 
reb accost 7th 
reb accost 4th 
reb accost 9th 
reb hoc SC AT&T 
reb hoc SC tat 
reb tact SC oh 
reb tact SC ho 
reb Oct sac 9th 
reb Oct sac 5th 
reb Oct sac 10th 
reb Oct sac 6th 
reb Oct sac 8th 
reb Oct sac 7th 
reb Oct sac 4th 
reb Oct SC hat 
reb scotch at 
orb act chest 
orb act c's the 
orb act etc h's 
orb act SC the 
orb act sec 5th 
orb act sec 9th 
orb act sec 4th 
orb act sec 10th 
orb act sec 6th 
orb act sec 8th 
orb act sec 7th 
orb Acts etch 
orb Acts tech 
orb AC c's 6th et 
orb AC c's 10th et 
orb AC c's 8th et 
orb AC c's 7th et 
orb AC c's 4th et 
orb AC c's 9th et 
orb AC c's 5th et 
orb AC etch t's 
orb AC etch 1st 
orb AC etch St. 
orb AC etch St 
orb AC SC 6th et 
orb AC SC 10th et 
orb AC SC 8th et 
orb AC SC 7th et 
orb AC SC 4th et 
orb AC SC 9th et 
orb AC SC 5th et 
orb AC tech St 
orb AC tech t's 
orb AC tech 1st 
orb AC tech St. 
orb AC sect 6th 
orb AC sect 10th 
orb AC sect 8th 
orb AC sect 7th 
orb AC sect 4th 
orb AC sect 9th 
orb AC sect 5th 
orb cast etch 
orb cast tech 
orb cat chest 
orb cat c's the 
orb cat etc h's 
orb cat SC the 
orb cat sec 6th 
orb cat sec 4th 
orb cat sec 7th 
orb cat sec 8th 
orb cat sec 10th 
orb cat sec 9th 
orb cat sec 5th 
orb catch EST 
orb catch set 
orb chat c's et 
orb chat SC et 
orb chat sect 
orb c's etc hat 
orb c's etch at 
orb c's tact he 
orb c's tact eh 
orb c's tech at 
orb etc sac 6th 
orb etc sac 4th 
orb etc sac 7th 
orb etc sac 8th 
orb etc sac 10th 
orb etc sac 9th 
orb etc sac 5th 
orb etc SC hat 
orb etch SC at 
orb etch scat 
orb tact SC eh 
orb tact SC he 
orb SC tech at 
orb scat tech 
strobe catch 
Hobart c's etc 
Hobart etc SC 
hob AC CRT set 
hob AC CRT EST 
hob arc etc 1st 
hob arc etc t's 
hob arc etc St 
hob arc etc St. 
hob act crest 
hob act CRT e's 
hob act c's ret 
hob act etc r's 
hob act SC ret 
hob car etc St. 
hob car etc St 
hob car etc t's 
hob car etc 1st 
hob cart c's et 
hob cart SC et 
hob cart sect 
hob caste CRT 
hob cat crest 
hob cat CRT e's 
hob cat c's ret 
hob cat etc r's 
hob cat SC ret 
hob CRT c's tea 
hob CRT c's eat 
hob CRT c's ate 
hob CRT c's eta 
hob CRT ace St 
hob CRT ace 1st 
hob CRT ace St. 
hob CRT ace t's 
hob CRT etc a's 
hob CRT etc sa 
hob CRT etc as 
hob CRT sac et 
hob CRT SC tea 
hob CRT SC eat 
hob CRT SC ate 
hob CRT SC eta 
hob CRT sec at 
hob c's etc art 
hob c's etc tar 
hob c's etc rat 
hob c's tact re 
hob etc RCA St 
hob etc RCA 1st 
hob etc RCA St. 
hob etc RCA t's 
hob etc SC rat 
hob etc SC tar 
hob etc SC art 
hob tact SC re 
hob sec tract 
herb Acts cot 
herb Acts Oct 
herb AC cot St. 
herb AC cot t's 
herb AC cot 1st 
herb AC cot St 
herb AC c's tot 
herb AC c's Ott 
herb AC Oct St. 
herb AC Oct t's 
herb AC Oct 1st 
herb AC Oct St 
herb AC SC tot 
herb AC SC Ott 
herb AC Scott 
herb act cost 
herb act c's to 
herb act SC to 
herb act Scot 
herb cast cot 
herb cast Oct 
herb cat cost 
herb cat c's to 
herb cat SC to 
herb cat Scot 
herb cos tact 
herb cot c's at 
herb cot SC at 
herb cot scat 
herb cotta c's 
herb cotta SC 
herb c's Oct at 
herb Oct SC at 
herb Oct scat 
crab chest to 
crab cos 8th et 
crab cos 10th et 
crab cos 9th et 
crab cos 5th et 
crab cos 4th et 
crab cos 6th et 
crab cos 7th et 
crab coset 8th 
crab coset 10th 
crab coset 9th 
crab coset 5th 
crab coset 4th 
crab coset 6th 
crab coset 7th 
crab cost the 
crab cot 8th e's 
crab cot 10th e's 
crab cot 9th e's 
crab cot he t's 
crab cot he 1st 
crab cot he St 
crab cot he St. 
crab cot h's et 
crab cot 5th e's 
crab cot eh t's 
crab cot eh 1st 
crab cot eh St 
crab cot eh St. 
crab cot 4th e's 
crab cot 6th e's 
crab cot Seth 
crab cot 7th e's 
crab c's 8th toe 
crab c's 10th toe 
crab c's hot et 
crab c's 9th toe 
crab c's he tot 
crab c's he Ott 
crab c's 5th toe 
crab c's eh tot 
crab c's eh Ott 
crab c's 4th toe 
crab c's the to 
crab c's 6th toe 
crab c's 7th toe 
crab etc host 
crab etc 10th so 
crab etc 10th o's 
crab etc shot 
crab etc 9th o's 
crab etc 9th so 
crab etc oh t's 
crab etc oh 1st 
crab etc oh St. 
crab etc oh St 
crab etc h's to 
crab etc 5th o's 
crab etc 5th so 
crab etc ho t's 
crab etc ho 1st 
crab etc ho St. 
crab etc ho St 
crab etc 4th o's 
crab etc 4th so 
crab etc 6th o's 
crab etc 6th so 
crab etc 7th o's 
crab etc 7th so 
crab etc 8th so 
crab etc 8th o's 
crab hoc test 
crab hoc St. et 
crab hoc St et 
crab hoc 1st et 
crab hoc t's et 
crab Oct 9th e's 
crab Oct he St. 
crab Oct he St 
crab Oct he 1st 
crab Oct he t's 
crab Oct h's et 
crab Oct 5th e's 
crab Oct eh St. 
crab Oct eh St 
crab Oct eh 1st 
crab Oct eh t's 
crab Oct 4th e's 
crab Oct 6th e's 
crab Oct Seth 
crab Oct 7th e's 
crab Oct 10th e's 
crab Oct 8th e's 
crab octet h's 
crab SC 4th toe 
crab SC the to 
crab SC 6th toe 
crab SC eh tot 
crab SC eh Ott 
crab SC 5th toe 
crab SC 7th toe 
crab SC he tot 
crab SC he Ott 
crab SC hot et 
crab SC 10th toe 
crab SC 8th toe 
crab SC 9th toe 
crab Scot the 
crab Scott eh 
crab Scott he 
crab sec 6th to 
crab sec 5th to 
crab sec 7th to 
crab sec 10th to 
crab sec 8th to 
crab sec 9th to 
crab sec 4th to 
crab sect hot 
Corbett AC h's 
Corbett cash 
Corbett c's ah 
Corbett c's ha 
Corbett SC ah 
Corbett SC ha 
cobra c's 6th et 
cobra c's 5th et 
cobra c's 7th et 
cobra c's 10th et 
cobra c's 8th et 
cobra c's 9th et 
cobra c's 4th et 
cobra etch t's 
cobra etch St. 
cobra etch 1st 
cobra etch St 
cobra SC 6th et 
cobra SC 5th et 
cobra SC 7th et 
cobra SC 10th et 
cobra SC 8th et 
cobra SC 9th et 
cobra SC 4th et 
cobra tech St 
cobra tech t's 
cobra tech St. 
cobra tech 1st 
cobra sect 6th 
cobra sect 5th 
cobra sect 7th 
cobra sect 10th 
cobra sect 8th 
cobra sect 9th 
cobra sect 4th 
CBS arch to et 
CBS arch tote 
CBS ache tort 
CBS ache trot 
CBS act her to 
CBS act other 
CBS act rho et 
CBS act 6th roe 
CBS act 6th ore 
CBS act 6th o'er 
CBS act eh rot 
CBS act eh tor 
CBS act 4th o'er 
CBS act 4th ore 
CBS act 4th roe 
CBS act 5th o'er 
CBS act 5th ore 
CBS act 5th roe 
CBS act ho ret 
CBS act oh ret 
CBS act hot re 
CBS act 10th o'er 
CBS act 10th ore 
CBS act 10th roe 
CBS act the or 
CBS act 8th o'er 
CBS act 8th ore 
CBS act 8th roe 
CBS act 9th o'er 
CBS act 9th ore 
CBS act 9th roe 
CBS act he rot 
CBS act he tor 
CBS act 7th o'er 
CBS act 7th ore 
CBS act 7th roe 
CBS AC her tot 
CBS AC her Ott 
CBS AC 7th tore 
CBS AC 7th or et 
CBS AC 7th to re 
CBS AC Thor et 
CBS AC he tort 
CBS AC he trot 
CBS AC 6th tore 
CBS AC 6th or et 
CBS AC 6th to re 
CBS AC Roth et 
CBS AC eh tort 
CBS AC eh trot 
CBS AC 4th tore 
CBS AC 4th or et 
CBS AC 4th to re 
CBS AC 5th tore 
CBS AC 5th or et 
CBS AC 5th to re 
CBS AC 9th tore 
CBS AC 9th or et 
CBS AC 9th to re 
CBS AC hot ret 
CBS AC 10th tore 
CBS AC 10th or et 
CBS AC 10th to re 
CBS AC the rot 
CBS AC the tor 
CBS AC 8th tore 
CBS AC 8th or et 
CBS AC 8th to re 
CBS car 7th toe 
CBS car he tot 
CBS car he Ott 
CBS car 6th toe 
CBS car eh tot 
CBS car eh Ott 
CBS car 4th toe 
CBS car 5th toe 
CBS car 9th toe 
CBS car hot et 
CBS car 10th toe 
CBS car the to 
CBS car 8th toe 
CBS care 7th to 
CBS care 6th to 
CBS care 4th to 
CBS care 5th to 
CBS care 9th to 
CBS care 10th to 
CBS care 8th to 
CBS caret hot 
CBS cart he to 
CBS cart eh to 
CBS cart ho et 
CBS cart oh et 
CBS carte hot 
CBS cat 7th ore 
CBS cat 7th roe 
CBS cat 7th o'er 
CBS cat other 
CBS cat rho et 
CBS cat he rot 
CBS cat he tor 
CBS cat 6th ore 
CBS cat 6th roe 
CBS cat 6th o'er 
CBS cat eh rot 
CBS cat eh tor 
CBS cat 4th ore 
CBS cat 4th roe 
CBS cat 4th o'er 
CBS cat 5th ore 
CBS cat 5th roe 
CBS cat 5th o'er 
CBS cat ho ret 
CBS cat 9th ore 
CBS cat 9th roe 
CBS cat 9th o'er 
CBS cat oh ret 
CBS cat hot re 
CBS cat her to 
CBS cat 10th ore 
CBS cat 10th roe 
CBS cat 10th o'er 
CBS cat the or 
CBS cat 8th ore 
CBS cat 8th roe 
CBS cat 8th o'er 
CBS cater hot 
CBS char tote 
CBS char to et 
CBS chart toe 
CBS chat to re 
CBS chat tore 
CBS chat or et 
CBS cheat tor 
CBS cheat rot 
CBS chert oat 
CBS chert tao 
CBS chore AT&T 
CBS chore tat 
CBS coat 7th re 
CBS coat 6th re 
CBS coat 4th re 
CBS coat 5th re 
CBS coat 9th re 
CBS coat 10th re 
CBS coat 8th re 
CBS core 7th at 
CBS core 6th at 
CBS core 4th at 
CBS core 5th at 
CBS core 9th at 
CBS core 10th at 
CBS core 8th at 
CBS core that 
CBS cot earth 
CBS cot ah ret 
CBS cot 7th Rae 
CBS cot 7th era 
CBS cot 7th are 
CBS cot 7th ear 
CBS cot hater 
CBS cot heart 
CBS cot he art 
CBS cot he rat 
CBS cot he tar 
CBS cot 6th Rae 
CBS cot 6th era 
CBS cot 6th are 
CBS cot 6th ear 
CBS cot eh rat 
CBS cot eh tar 
CBS cot eh art 
CBS cot 4th are 
CBS cot 4th ear 
CBS cot 4th era 
CBS cot 4th Rae 
CBS cot 5th ear 
CBS cot 5th era 
CBS cot 5th Rae 
CBS cot 5th are 
CBS cot 9th ear 
CBS cot 9th era 
CBS cot 9th Rae 
CBS cot 9th are 
CBS cot ha ret 
CBS cot her at 
CBS cot 10th ear 
CBS cot 10th era 
CBS cot 10th Rae 
CBS cot 10th are 
CBS cot hat re 
CBS cot 8th ear 
CBS cot 8th era 
CBS cot 8th Rae 
CBS cot 8th are 
CBS cotta her 
CBS crate hot 
CBS CRT ah toe 
CBS CRT Tahoe 
CBS CRT he tao 
CBS CRT he oat 
CBS CRT eh tao 
CBS CRT eh oat 
CBS CRT ho eat 
CBS CRT ho tea 
CBS CRT ho eta 
CBS CRT ho ate 
CBS CRT ha toe 
CBS CRT oh eat 
CBS CRT oh tea 
CBS CRT oh eta 
CBS CRT oh ate 
CBS CRT hoe at 
CBS each trot 
CBS each tort 
CBS torch tea 
CBS torch eta 
CBS torch ate 
CBS torch eat 
CBS echo tart 
CBS teach rot 
CBS teach tor 
CBS arc 7th toe 
CBS arc he Ott 
CBS arc he tot 
CBS arc 6th toe 
CBS arc eh Ott 
CBS arc eh tot 
CBS arc 4th toe 
CBS arc 5th toe 
CBS arc 9th toe 
CBS arc hot et 
CBS arc 10th toe 
CBS arc the to 
CBS arc 8th toe 
CBS ace 7th rot 
CBS ace 7th tor 
CBS ace 6th tor 
CBS ace 6th rot 
CBS ace 4th rot 
CBS ace 4th tor 
CBS ace 5th rot 
CBS ace 5th tor 
CBS ace 9th rot 
CBS ace 9th tor 
CBS ace 10th rot 
CBS ace 10th tor 
CBS ace 8th rot 
CBS ace 8th tor 
CBS etc rho at 
CBS etc 7th oar 
CBS etc 6th oar 
CBS etc 4th oar 
CBS etc 5th oar 
CBS etc torah 
CBS etc ah rot 
CBS etc ah tor 
CBS etc ho rat 
CBS etc ho art 
CBS etc ho tar 
CBS etc 9th oar 
CBS etc ha rot 
CBS etc ha tor 
CBS etc oh rat 
CBS etc oh art 
CBS etc oh tar 
CBS etc 10th oar 
CBS etc hat or 
CBS etc 8th oar 
CBS etch or at 
CBS hector at 
CBS hoc tater 
CBS hoc tar et 
CBS hoc treat 
CBS hoc re AT&T 
CBS hoc re tat 
CBS hoc ret at 
CBS hoc art et 
CBS hoc rat et 
CBS tact he or 
CBS tact eh or 
CBS tact hero 
CBS tact ho re 
CBS tact oh re 
CBS actor the 
CBS Oct 6th are 
CBS Oct 6th ear 
CBS Oct 6th era 
CBS Oct 6th Rae 
CBS Oct 7th are 
CBS Oct 7th ear 
CBS Oct 7th era 
CBS Oct 7th Rae 
CBS Oct eh art 
CBS Oct eh rat 
CBS Oct eh tar 
CBS Oct 4th are 
CBS Oct 4th ear 
CBS Oct 4th era 
CBS Oct 4th Rae 
CBS Oct he art 
CBS Oct he rat 
CBS Oct he tar 
CBS Oct 5th are 
CBS Oct 5th ear 
CBS Oct 5th era 
CBS Oct 5th Rae 
CBS Oct heart 
CBS Oct hater 
CBS Oct ah ret 
CBS Oct 9th ear 
CBS Oct 9th era 
CBS Oct 9th Rae 
CBS Oct 9th are 
CBS Oct ha ret 
CBS Oct her at 
CBS Oct 10th ear 
CBS Oct 10th era 
CBS Oct 10th Rae 
CBS Oct 10th are 
CBS Oct hat re 
CBS Oct 8th ear 
CBS Oct 8th era 
CBS Oct 8th Rae 
CBS Oct 8th are 
CBS Oct earth 
CBS race 6th to 
CBS race 7th to 
CBS race 4th to 
CBS race 5th to 
CBS race 9th to 
CBS race 10th to 
CBS race 8th to 
CBS RCA 6th toe 
CBS RCA 7th toe 
CBS RCA eh tot 
CBS RCA eh Ott 
CBS RCA 4th toe 
CBS RCA he tot 
CBS RCA he Ott 
CBS RCA 5th toe 
CBS RCA 9th toe 
CBS RCA hot et 
CBS RCA 10th toe 
CBS RCA the to 
CBS RCA 8th toe 
CBS reach Ott 
CBS reach tot 
CBS retch oat 
CBS retch tao 
CBS ROTC eh at 
CBS ROTC he at 
CBS ROTC Thea 
CBS ROTC ah et 
CBS ROTC heat 
CBS ROTC ha et 
CBS ROTC hate 
CBS tract hoe 
CBS acre 7th to 
CBS acre 4th to 
CBS acre 5th to 
CBS acre 9th to 
CBS acre 10th to 
CBS acre 8th to 
CBS acre 6th to 
CBS tech or at 
CBS trace hot 
carob c's 4th et 
carob c's 5th et 
carob c's 9th et 
carob c's 10th et 
carob c's 8th et 
carob c's 6th et 
carob c's 7th et 
carob etch St. 
carob etch 1st 
carob etch t's 
carob etch St 
carob SC 4th et 
carob SC 5th et 
carob SC 9th et 
carob SC 10th et 
carob SC 8th et 
carob SC 6th et 
carob SC 7th et 
carob tech St. 
carob tech 1st 
carob tech t's 
carob tech St 
carob sect 4th 
carob sect 5th 
carob sect 9th 
carob sect 10th 
carob sect 8th 
carob sect 6th 
carob sect 7th 
Cabot CRT she 
Cabot c's 6th re 
Cabot c's 8th re 
Cabot c's 10th re 
Cabot c's 9th re 
Cabot c's 5th re 
Cabot c's 4th re 
Cabot c's 7th re 
Cabot etch r's 
Cabot SC 6th re 
Cabot SC 8th re 
Cabot SC 10th re 
Cabot SC 9th re 
Cabot SC 5th re 
Cabot SC 4th re 
Cabot SC 7th re 
Cabot tech r's 
cab chest tor 
cab chest rot 
cab core 6th St. 
cab core 6th 1st 
cab core 6th t's 
cab core 6th St 
cab core 8th St. 
cab core 8th 1st 
cab core 8th t's 
cab core 8th St 
cab core 10th St. 
cab core 10th 1st 
cab core 10th t's 
cab core 10th St 
cab core 9th St. 
cab core 9th 1st 
cab core 9th t's 
cab core 9th St 
cab core 5th St. 
cab core 5th 1st 
cab core 5th t's 
cab core 5th St 
cab core 4th St. 
cab core 4th 1st 
cab core 4th t's 
cab core 4th St 
cab core 7th St. 
cab core 7th 1st 
cab core 7th t's 
cab core 7th St 
cab cos 6th ret 
cab cos 8th ret 
cab cos 10th ret 
cab cos 9th ret 
cab cos 5th ret 
cab cos 4th ret 
cab cos 7th ret 
cab cost 6th re 
cab cost 8th re 
cab cost 10th re 
cab cost 9th re 
cab cost 5th re 
cab cost 4th re 
cab cost 7th re 
cab cot her 1st 
cab cot her St. 
cab cot her t's 
cab cot her St 
cab cot the r's 
cab cot h's ret 
cab crest hot 
cab CRT those 
cab CRT ethos 
cab CRT ho EST 
cab CRT ho set 
cab CRT oh EST 
cab CRT oh set 
cab CRT hot e's 
cab CRT hoe 1st 
cab CRT hoe St. 
cab CRT hoe t's 
cab CRT hoe St 
cab CRT the so 
cab CRT the o's 
cab CRT she to 
cab CRT h's toe 
cab c's Roth et 
cab c's Thor et 
cab c's hot ret 
cab c's 7th or et 
cab c's 7th to re 
cab c's 7th tore 
cab c's her Ott 
cab c's her tot 
cab c's eh tort 
cab c's eh trot 
cab c's 6th or et 
cab c's 6th to re 
cab c's 6th tore 
cab c's 8th or et 
cab c's 8th to re 
cab c's 8th tore 
cab c's the rot 
cab c's the tor 
cab c's 10th or et 
cab c's 10th to re 
cab c's 10th tore 
cab c's 9th or et 
cab c's 9th to re 
cab c's 9th tore 
cab c's 5th or et 
cab c's 5th to re 
cab c's 5th tore 
cab c's he tort 
cab c's he trot 
cab c's 4th or et 
cab c's 4th to re 
cab c's 4th tore 
cab torch set 
cab torch EST 
cab escort 7th 
cab escort 6th 
cab escort 8th 
cab escort 10th 
cab escort 9th 
cab escort 5th 
cab escort 4th 
cab etc short 
cab etc rho St. 
cab etc rho St 
cab etc rho t's 
cab etc rho 1st 
cab etc hot r's 
cab etc h's tor 
cab etc h's rot 
cab etch t's or 
cab etch 1st or 
cab etch sort 
cab etch St. or 
cab etch r's to 
cab etch St or 
cab hector t's 
cab hector 1st 
cab hector St. 
cab hector St 
cab hoc t's ret 
cab hoc 1st ret 
cab hoc St. ret 
cab hoc St ret 
cab Oct h's ret 
cab Oct her t's 
cab Oct her 1st 
cab Oct her St. 
cab Oct her St 
cab Oct the r's 
cab ROTC 7th e's 
cab ROTC h's et 
cab ROTC Seth 
cab ROTC eh St. 
cab ROTC eh t's 
cab ROTC eh St 
cab ROTC eh 1st 
cab ROTC 6th e's 
cab ROTC 8th e's 
cab ROTC 10th e's 
cab ROTC 9th e's 
cab ROTC 5th e's 
cab ROTC he St. 
cab ROTC he t's 
cab ROTC he St 
cab ROTC he 1st 
cab ROTC 4th e's 
cab SC Roth et 
cab SC Thor et 
cab SC hot ret 
cab SC 7th tore 
cab SC 7th to re 
cab SC 7th or et 
cab SC her Ott 
cab SC her tot 
cab SC eh tort 
cab SC eh trot 
cab SC 6th tore 
cab SC 6th to re 
cab SC 6th or et 
cab SC 8th tore 
cab SC 8th to re 
cab SC 8th or et 
cab SC the tor 
cab SC the rot 
cab SC 10th tore 
cab SC 10th to re 
cab SC 10th or et 
cab SC 9th tore 
cab SC 9th to re 
cab SC 9th or et 
cab SC 5th tore 
cab SC 5th to re 
cab SC 5th or et 
cab SC he tort 
cab SC he trot 
cab SC 4th tore 
cab SC 4th to re 
cab SC 4th or et 
cab Scot 7th re 
cab Scot 6th re 
cab Scot 8th re 
[...]
bpred_bimod.retstack_pushes       708915 # total number of address pushed onto ret-addr stack
bpred_bimod.retstack_pops       659420 # total number of address popped off of ret-addr stack
bpred_bimod.used_ras.PP       652678 # total number of RAS predictions used
bpred_bimod.ras_hits.PP       652526 # total number of RAS hits
bpred_bimod.ras_rate.PP    0.9998 # RAS prediction rate (i.e., RAS hits/used RAS)
il1.accesses               59499785 # total number of accesses
il1.hits                   59258765 # total number of hits
il1.misses                   241020 # total number of misses
il1.replacements             240542 # total number of replacements
il1.writebacks                    0 # total number of writebacks
il1.invalidations                 0 # total number of invalidations
il1.miss_rate                0.0041 # miss rate (i.e., misses/ref)
il1.repl_rate                0.0040 # replacement rate (i.e., repls/ref)
il1.wb_rate                  0.0000 # writeback rate (i.e., wrbks/ref)
il1.inv_rate                 0.0000 # invalidation rate (i.e., invs/ref)
dl1.accesses               19242094 # total number of accesses
dl1.hits                   19170978 # total number of hits
dl1.misses                    71116 # total number of misses
dl1.replacements              70604 # total number of replacements
dl1.writebacks                16659 # total number of writebacks
dl1.invalidations                 0 # total number of invalidations
dl1.miss_rate                0.0037 # miss rate (i.e., misses/ref)
dl1.repl_rate                0.0037 # replacement rate (i.e., repls/ref)
dl1.wb_rate                  0.0009 # writeback rate (i.e., wrbks/ref)
dl1.inv_rate                 0.0000 # invalidation rate (i.e., invs/ref)
ul2.accesses                 328795 # total number of accesses
ul2.hits                     318530 # total number of hits
ul2.misses                    10265 # total number of misses
ul2.replacements               6175 # total number of replacements
ul2.writebacks                 2827 # total number of writebacks
ul2.invalidations                 0 # total number of invalidations
ul2.miss_rate                0.0312 # miss rate (i.e., misses/ref)
ul2.repl_rate                0.0188 # replacement rate (i.e., repls/ref)
ul2.wb_rate                  0.0086 # writeback rate (i.e., wrbks/ref)
ul2.inv_rate                 0.0000 # invalidation rate (i.e., invs/ref)
itlb.accesses              59499785 # total number of accesses
itlb.hits                  59499765 # total number of hits
itlb.misses                      20 # total number of misses
itlb.replacements                 0 # total number of replacements
itlb.writebacks                   0 # total number of writebacks
itlb.invalidations                0 # total number of invalidations
itlb.miss_rate               0.0000 # miss rate (i.e., misses/ref)
itlb.repl_rate               0.0000 # replacement rate (i.e., repls/ref)
itlb.wb_rate                 0.0000 # writeback rate (i.e., wrbks/ref)
itlb.inv_rate                0.0000 # invalidation rate (i.e., invs/ref)
dtlb.accesses              19329559 # total number of accesses
dtlb.hits                  19329474 # total number of hits
dtlb.misses                      85 # total number of misses
dtlb.replacements                 0 # total number of replacements
dtlb.writebacks                   0 # total number of writebacks
dtlb.invalidations                0 # total number of invalidations
dtlb.miss_rate               0.0000 # miss rate (i.e., misses/ref)
dtlb.repl_rate               0.0000 # replacement rate (i.e., repls/ref)
dtlb.wb_rate                 0.0000 # writeback rate (i.e., wrbks/ref)
dtlb.inv_rate                0.0000 # invalidation rate (i.e., invs/ref)
rename_power           10502877.0795 # total power usage of rename unit
bpred_power            113659720.8371 # total power usage of bpred unit
window_power           55391405.8173 # total power usage of instruction window
lsq_power              24203340.5460 # total power usage of load/store queue
regfile_power          89771133.2493 # total power usage of arch. regfile
icache_power           62242016.1593 # total power usage of icache
dcache_power           152905023.5785 # total power usage of dcache
dcache2_power          105768570.5644 # total power usage of dcache2
alu_power              475964746.6578 # total power usage of alu
falu_power             358862309.2168 # total power usage of falu
resultbus_power        57733978.7411 # total power usage of resultbus
clock_power            655792298.2491 # total power usage of clock
avg_rename_power             0.4180 # avg power usage of rename unit
avg_bpred_power              4.5231 # avg power usage of bpred unit
avg_window_power             2.2043 # avg power usage of instruction window
avg_lsq_power                0.9632 # avg power usage of lsq
avg_regfile_power            3.5725 # avg power usage of arch. regfile
avg_icache_power             2.4769 # avg power usage of icache
avg_dcache_power             6.0849 # avg power usage of dcache
avg_dcache2_power            4.2091 # avg power usage of dcache2
avg_alu_power               18.9412 # avg power usage of alu
avg_falu_power              14.2810 # avg power usage of falu
avg_resultbus_power          2.2975 # avg power usage of resultbus
avg_clock_power             26.0975 # avg power usage of clock
fetch_stage_power      175901736.9964 # total power usage of fetch stage
dispatch_stage_power   10502877.0795 # total power usage of dispatch stage
issue_stage_power      871967065.9052 # total power usage of issue stage
avg_fetch_power              7.0001 # average power of fetch unit per cycle
avg_dispatch_power           0.4180 # average power of dispatch unit per cycle
avg_issue_power             34.7002 # average power of issue unit per cycle
total_power            1803935111.4795 # total power per cycle
avg_total_power_cycle       71.7882 # average total power per cycle
avg_total_power_cycle_nofp_nod2      53.2981 # average total power per cycle
avg_total_power_insn        31.0381 # average total power per insn
avg_total_power_insn_nofp_nod2      23.0437 # average total power per insn
rename_power_cc1       8455783.6915 # total power usage of rename unit_cc1
bpred_power_cc1        32488235.0910 # total power usage of bpred unit_cc1
window_power_cc1       50162125.8406 # total power usage of instruction window_cc1
lsq_power_cc1          7042839.3145 # total power usage of lsq_cc1
regfile_power_cc1      66164606.0965 # total power usage of arch. regfile_cc1
icache_power_cc1       51624491.4748 # total power usage of icache_cc1
dcache_power_cc1       77403789.5426 # total power usage of dcache_cc1
dcache2_power_cc1      1306871.5218 # total power usage of dcache2_cc1
alu_power_cc1          141831784.3157 # total power usage of alu_cc1
resultbus_power_cc1    42528685.7414 # total power usage of resultbus_cc1
clock_power_cc1        307839958.7436 # total power usage of clock_cc1
avg_rename_power_cc1         0.3365 # avg power usage of rename unit_cc1
avg_bpred_power_cc1          1.2929 # avg power usage of bpred unit_cc1
avg_window_power_cc1         1.9962 # avg power usage of instruction window_cc1
avg_lsq_power_cc1            0.2803 # avg power usage of lsq_cc1
avg_regfile_power_cc1        2.6330 # avg power usage of arch. regfile_cc1
avg_icache_power_cc1         2.0544 # avg power usage of icache_cc1
avg_dcache_power_cc1         3.0803 # avg power usage of dcache_cc1
avg_dcache2_power_cc1        0.0520 # avg power usage of dcache2_cc1
avg_alu_power_cc1            5.6442 # avg power usage of alu_cc1
avg_resultbus_power_cc1       1.6924 # avg power usage of resultbus_cc1
avg_clock_power_cc1         12.2506 # avg power usage of clock_cc1
fetch_stage_power_cc1  84112726.5659 # total power usage of fetch stage_cc1
dispatch_stage_power_cc1 8455783.6915 # total power usage of dispatch stage_cc1
issue_stage_power_cc1  320276096.2765 # total power usage of issue stage_cc1
avg_fetch_power_cc1          3.3473 # average power of fetch unit per cycle_cc1
avg_dispatch_power_cc1       0.3365 # average power of dispatch unit per cycle_cc1
avg_issue_power_cc1         12.7455 # average power of issue unit per cycle_cc1
total_power_cycle_cc1  786849171.3740 # total power per cycle_cc1
avg_total_power_cycle_cc1      31.3129 # average total power per cycle_cc1
avg_total_power_insn_cc1      13.5383 # average total power per insn_cc1
rename_power_cc2       6073047.4035 # total power usage of rename unit_cc2
bpred_power_cc2        18861466.4721 # total power usage of bpred unit_cc2
window_power_cc2       44194998.5817 # total power usage of instruction window_cc2
lsq_power_cc2          4790637.4663 # total power usage of lsq_cc2
regfile_power_cc2      18526480.5534 # total power usage of arch. regfile_cc2
icache_power_cc2       51624491.4748 # total power usage of icache_cc2
dcache_power_cc2       58543169.2288 # total power usage of dcache_cc2
dcache2_power_cc2       691964.7683 # total power usage of dcache2_cc2
alu_power_cc2          72677060.4903 # total power usage of alu_cc2
resultbus_power_cc2    29413433.5024 # total power usage of resultbus_cc2
clock_power_cc2        197161337.6344 # total power usage of clock_cc2
avg_rename_power_cc2         0.2417 # avg power usage of rename unit_cc2
avg_bpred_power_cc2          0.7506 # avg power usage of bpred unit_cc2
avg_window_power_cc2         1.7588 # avg power usage of instruction window_cc2
avg_lsq_power_cc2            0.1906 # avg power usage of instruction lsq_cc2
avg_regfile_power_cc2        0.7373 # avg power usage of arch. regfile_cc2
avg_icache_power_cc2         2.0544 # avg power usage of icache_cc2
avg_dcache_power_cc2         2.3297 # avg power usage of dcache_cc2
avg_dcache2_power_cc2        0.0275 # avg power usage of dcache2_cc2
avg_alu_power_cc2            2.8922 # avg power usage of alu_cc2
avg_resultbus_power_cc2       1.1705 # avg power usage of resultbus_cc2
avg_clock_power_cc2          7.8461 # avg power usage of clock_cc2
fetch_stage_power_cc2  70485957.9469 # total power usage of fetch stage_cc2
dispatch_stage_power_cc2 6073047.4035 # total power usage of dispatch stage_cc2
issue_stage_power_cc2  210311264.0379 # total power usage of issue stage_cc2
avg_fetch_power_cc2          2.8050 # average power of fetch unit per cycle_cc2
avg_dispatch_power_cc2       0.2417 # average power of dispatch unit per cycle_cc2
avg_issue_power_cc2          8.3694 # average power of issue unit per cycle_cc2
total_power_cycle_cc2  502558087.5760 # total power per cycle_cc2
avg_total_power_cycle_cc2      19.9995 # average total power per cycle_cc2
avg_total_power_insn_cc2       8.6469 # average total power per insn_cc2
rename_power_cc3       6277756.7419 # total power usage of rename unit_cc3
bpred_power_cc3        26978622.0660 # total power usage of bpred unit_cc3
window_power_cc3       44578243.5459 # total power usage of instruction window_cc3
lsq_power_cc3          6478263.1133 # total power usage of lsq_cc3
regfile_power_cc3      19776588.2158 # total power usage of arch. regfile_cc3
icache_power_cc3       52686243.9385 # total power usage of icache_cc3
dcache_power_cc3       66379535.4242 # total power usage of dcache_cc3
dcache2_power_cc3      11138242.6354 # total power usage of dcache2_cc3
alu_power_cc3          106090356.7011 # total power usage of alu_cc3
resultbus_power_cc3    30107447.6869 # total power usage of resultbus_cc3
clock_power_cc3        230939162.8470 # total power usage of clock_cc3
avg_rename_power_cc3         0.2498 # avg power usage of rename unit_cc3
avg_bpred_power_cc3          1.0736 # avg power usage of bpred unit_cc3
avg_window_power_cc3         1.7740 # avg power usage of instruction window_cc3
avg_lsq_power_cc3            0.2578 # avg power usage of instruction lsq_cc3
avg_regfile_power_cc3        0.7870 # avg power usage of arch. regfile_cc3
avg_icache_power_cc3         2.0967 # avg power usage of icache_cc3
avg_dcache_power_cc3         2.6416 # avg power usage of dcache_cc3
avg_dcache2_power_cc3        0.4433 # avg power usage of dcache2_cc3
avg_alu_power_cc3            4.2219 # avg power usage of alu_cc3
avg_resultbus_power_cc3       1.1981 # avg power usage of resultbus_cc3
avg_clock_power_cc3          9.1903 # avg power usage of clock_cc3
fetch_stage_power_cc3  79664866.0045 # total power usage of fetch stage_cc3
dispatch_stage_power_cc3 6277756.7419 # total power usage of dispatch stage_cc3
issue_stage_power_cc3  264772089.1068 # total power usage of issue stage_cc3
avg_fetch_power_cc3          3.1703 # average power of fetch unit per cycle_cc3
avg_dispatch_power_cc3       0.2498 # average power of dispatch unit per cycle_cc3
avg_issue_power_cc3         10.5367 # average power of issue unit per cycle_cc3
total_power_cycle_cc3  601430462.9160 # total power per cycle_cc3
avg_total_power_cycle_cc3      23.9341 # average total power per cycle_cc3
avg_total_power_insn_cc3      10.3481 # average total power per insn_cc3
avg_power                   75.2465 # Sum of average powers (cc1+cc2+cc3)
tot_power              1890837721.8660 # Sum of total powers (cc1+cc2+cc3)
total_rename_access        58120085 # total number accesses of rename unit
total_bpred_access          8340013 # total number accesses of bpred unit
total_window_access       212612977 # total number accesses of instruction window
total_lsq_access           19435077 # total number accesses of load/store queue
total_regfile_access       73052464 # total number accesses of arch. regfile
total_icache_access        59500408 # total number accesses of icache
total_dcache_access        19242094 # total number accesses of dcache
total_dcache2_access         328795 # total number accesses of dcache2
total_alu_access           56426427 # total number accesses of alu
total_resultbus_access     61552902 # total number accesses of resultbus
avg_rename_access            2.3129 # avg number accesses of rename unit
avg_bpred_access             0.3319 # avg number accesses of bpred unit
avg_window_access            8.4610 # avg number accesses of instruction window
avg_lsq_access               0.7734 # avg number accesses of lsq
avg_regfile_access           2.9071 # avg number accesses of arch. regfile
avg_icache_access            2.3678 # avg number accesses of icache
avg_dcache_access            0.7657 # avg number accesses of dcache
avg_dcache2_access           0.0131 # avg number accesses of dcache2
avg_alu_access               2.2455 # avg number accesses of alu
avg_resultbus_access         2.4495 # avg number accesses of resultbus
max_rename_access                 4 # max number accesses of rename unit
max_bpred_access                  3 # max number accesses of bpred unit
max_window_access                16 # max number accesses of instruction window
max_lsq_access                    5 # max number accesses of load/store queue
max_regfile_access               11 # max number accesses of arch. regfile
max_icache_access                 4 # max number accesses of icache
max_dcache_access                 4 # max number accesses of dcache
max_dcache2_access                4 # max number accesses of dcache2
max_alu_access                    4 # max number accesses of alu
max_resultbus_access              6 # max number accesses of resultbus
max_cycle_power_cc1         56.7659 # maximum cycle power usage of cc1
max_cycle_power_cc2         35.7448 # maximum cycle power usage of cc2
max_cycle_power_cc3         38.4813 # maximum cycle power usage of cc3
sim_invalid_addrs                 0 # total non-speculative bogus addresses seen (debug var)
ld_text_base           0x0120000000 # program text (code) segment base
ld_text_size                 106496 # program text (code) size in bytes
ld_data_base           0x0140000000 # program initialized data segment base
ld_data_size                  71264 # program init'ed `.data' and uninit'ed `.bss' size in bytes
ld_stack_base          0x011ff9b000 # program stack segment base (highest address in stack)
ld_stack_size                 16384 # program initial stack size
ld_prog_entry          0x01200059c0 # program entry point (initial PC)
ld_environ_base        0x011ff97000 # program environment base address address
ld_target_big_endian              0 # target executable endian-ness, non-zero if big endian
mem.page_count                   54 # total number of pages allocated
mem.page_mem                   432k # total size of memory pages allocated
mem.ptab_misses              646071 # total first level page table misses
mem.ptab_accesses         401639760 # total page table accesses
mem.ptab_miss_rate           0.0016 # first level page table miss rate


Cache Parameters:
  Size in bytes: 16384
  Number of sets: 512
  Associativity: 4
  Block Size (bytes): 8

Access Time: 9.27925e-09
Cycle Time:  1.09081e-08

Best Ndwl (L1): 8
Best Ndbl (L1): 1
Best Nspd (L1): 1
Best Ntwl (L1): 1
Best Ntbl (L1): 4
Best Ntspd (L1): 1

Time Components:
 data side (with Output driver) (ns): 8.44162
 tag side (ns): 8.55667
 decode_data (ns): 5.29318
 wordline_data (ns): 1.03507
 bitline_data (ns): 0.810785
 sense_amp_data (ns): 0.58
 decode_tag (ns): 2.37065
 wordline_tag (ns): 1.36749
 bitline_tag (ns): 0.158246
 sense_amp_tag (ns): 0.26
 compare (ns): 2.42991
 mux driver (ns): 1.6125
 sel inverter (ns): 0.357877
 data output driver (ns): 0.722579
 total data path (with output driver) (ns): 7.71904
 total tag path is set assoc (ns): 8.55667
 precharge time (ns): 1.6289

Cache Parameters:
  Size in bytes: 16384
  Number of sets: 512
  Associativity: 1
  Block Size (bytes): 32

Access Time: 6.07496e-09
Cycle Time:  7.99836e-09

Best Ndwl (L1): 2
Best Ndbl (L1): 2
Best Nspd (L1): 1
Best Ntwl (L1): 1
Best Ntbl (L1): 2
Best Ntspd (L1): 2

Time Components:
 data side (with Output driver) (ns): 6.07496
 tag side (ns): 6.05737
 decode_data (ns): 2.92313
 wordline_data (ns): 1.32956
 bitline_data (ns): 0.452976
 sense_amp_data (ns): 0.58
 decode_tag (ns): 1.84499
 wordline_tag (ns): 0.825016
 bitline_tag (ns): 0.252886
 sense_amp_tag (ns): 0.26
 compare (ns): 2.30022
 valid signal driver (ns): 0.574251
 data output driver (ns): 0.789293
 total data path (with output driver) (ns): 5.28567
 total tag path is dm (ns): 6.05737
 precharge time (ns): 1.92339

Cache Parameters:
  Size in bytes: 16384
  Number of sets: 128
  Associativity: 4
  Block Size (bytes): 32

Access Time: 9.14093e-09
Cycle Time:  1.11718e-08

Best Ndwl (L1): 4
Best Ndbl (L1): 2
Best Nspd (L1): 1
Best Ntwl (L1): 1
Best Ntbl (L1): 2
Best Ntspd (L1): 1

Time Components:
 data side (with Output driver) (ns): 6.05114
 tag side (ns): 7.98848
 decode_data (ns): 2.92572
 wordline_data (ns): 1.437
 bitline_data (ns): -0.0440331
 sense_amp_data (ns): 0.58
 decode_tag (ns): 1.46851
 wordline_tag (ns): 1.27791
 bitline_tag (ns): -0.0315811
 sense_amp_tag (ns): 0.26
 compare (ns): 2.29478
 mux driver (ns): 2.37376
 sel inverter (ns): 0.345094
 data output driver (ns): 1.15245
 total data path (with output driver) (ns): 4.89869
 total tag path is set assoc (ns): 7.98848
 precharge time (ns): 2.03083

Cache Parameters:
  Size in bytes: 262144
  Number of sets: 1024
  Associativity: 4
  Block Size (bytes): 64

Access Time: 1.44948e-08
Cycle Time:  1.76863e-08

Best Ndwl (L1): 2
Best Ndbl (L1): 2
Best Nspd (L1): 1
Best Ntwl (L1): 1
Best Ntbl (L1): 4
Best Ntspd (L1): 1

Time Components:
 data side (with Output driver) (ns): 11.3269
 tag side (ns): 12.2049
 decode_data (ns): 4.99158
 wordline_data (ns): 2.59771
 bitline_data (ns): 0.867749
 sense_amp_data (ns): 0.58
 decode_tag (ns): 4.52586
 wordline_tag (ns): 1.24192
 bitline_tag (ns): 0.46158
 sense_amp_tag (ns): 0.26
 compare (ns): 2.17054
 mux driver (ns): 3.21212
 sel inverter (ns): 0.332908
 data output driver (ns): 2.28987
 total data path (with output driver) (ns): 9.03704
 total tag path is set assoc (ns): 12.2049
 precharge time (ns): 3.19154
